/*---------------------------------------------------------------------------*\
  =========                 |
  \\      /  F ield         | OpenFOAM: The Open Source CFD Toolbox
   \\    /   O peration     | Website:  https://openfoam.org
    \\  /    A nd           | Version:  13
     \\/     M anipulation  |
\*---------------------------------------------------------------------------*/
Build  : 13-58ed5c2046ef
Exec   : foamRun
Date   : Apr 08 2026
Time   : 10:17:19
Host   : "P0243"
PID    : 987542
I/O    : uncollated
Case   : /home/wk9874/Documents/simvue/connectors-openfoam/examples/damBreak
nProcs : 1
sigFpe : Enabling floating point exception trapping (FOAM_SIGFPE).
fileModificationChecking : Monitoring run-time modified files using timeStampMaster (fileModificationSkew 10)
allowSystemOperations : Allowing user-supplied system call operations

// * * * * * * * * * * * * * * * * * * * * * * * * * * * * * * * * * * * * * //
Create time

Create mesh for time = 0

Selecting solver incompressibleMultiphaseVoF
Selecting viscosity model constant
Selecting viscosity model constant
Selecting viscosity model constant
Selecting viscosity model constant
No MRF models present

Courant Number mean: 0 max: 0
Interface Courant Number mean: 0 max: 0
Selecting turbulence model type RAS
    Selecting RAS turbulence model kEpsilon
GAMGPCG:  Solving for pcorr, Initial residual = 0, Final residual = 0, No Iterations 0

PIMPLE: No convergence criteria found


PIMPLE: Operating solver in transient mode with 1 outer corrector
PIMPLE: Operating solver in PISO mode



Starting time loop

Courant Number mean: 0 max: 0
Interface Courant Number mean: 0 max: 0
deltaT = 0.00119048
Time = 0.00119048s

MULES: Solving for alpha.water
water volume fraction, min, max = 0.0858 0 1
MULES: Solving for alpha.oil
oil volume fraction, min, max = 0.119344 0 1
MULES: Solving for alpha.mercury
mercury volume fraction, min, max = 0.0443935 0 1
MULES: Solving for alpha.air
air volume fraction, min, max = 0.750462 0 1
Phase-sum volume fraction, min, max = 1 1 1
smoothSolver:  Solving for Ux, Initial residual = 1, Final residual = 6.63239e-09, No Iterations 1
smoothSolver:  Solving for Uy, Initial residual = 1, Final residual = 7.23145e-09, No Iterations 1
GAMG:  Solving for p_rgh, Initial residual = 1, Final residual = 0.0488471, No Iterations 1
time step continuity errors : sum local = 0.0161636, global = 2.29263e-05
GAMGPCG:  Solving for p_rgh, Initial residual = 0.0157268, Final residual = 5.65127e-08, No Iterations 8
time step continuity errors : sum local = 5.80155e-08, global = -3.13041e-09, cumulative = -3.13041e-09
smoothSolver:  Solving for epsilon, Initial residual = 0.000395958, Final residual = 9.91994e-10, No Iterations 1
smoothSolver:  Solving for k, Initial residual = 1, Final residual = 2.24243e-10, No Iterations 2
ExecutionTime = 0.224922 s  ClockTime = 0 s

Courant Number mean: 0.00125427 max: 0.135929
Interface Courant Number mean: 0 max: 0
deltaT = 0.00139456
Time = 0.00258503s

MULES: Solving for alpha.water
water volume fraction, min, max = 0.0858 0 1
MULES: Solving for alpha.oil
oil volume fraction, min, max = 0.119344 0 1
MULES: Solving for alpha.mercury
mercury volume fraction, min, max = 0.0443935 0 1
MULES: Solving for alpha.air
air volume fraction, min, max = 0.750462 0 1
Phase-sum volume fraction, min, max = 1 0.999998 1
smoothSolver:  Solving for Ux, Initial residual = 0.462399, Final residual = 8.7834e-08, No Iterations 6
smoothSolver:  Solving for Uy, Initial residual = 0.361298, Final residual = 4.10145e-07, No Iterations 5
GAMG:  Solving for p_rgh, Initial residual = 0.000906051, Final residual = 4.10297e-05, No Iterations 2
time step continuity errors : sum local = 3.29925e-05, global = 1.82411e-06
GAMGPCG:  Solving for p_rgh, Initial residual = 0.000143118, Final residual = 2.27253e-08, No Iterations 5
time step continuity errors : sum local = 1.84743e-08, global = 1.38391e-09, cumulative = -1.7465e-09
smoothSolver:  Solving for epsilon, Initial residual = 0.0132282, Final residual = 4.53928e-07, No Iterations 3
smoothSolver:  Solving for k, Initial residual = 0.439601, Final residual = 1.12386e-07, No Iterations 5
ExecutionTime = 0.234486 s  ClockTime = 0 s

Courant Number mean: 0.00218262 max: 0.0528038
Interface Courant Number mean: 1.62166e-05 max: 0.0305814
deltaT = 0.001635
Time = 0.00422003s

MULES: Solving for alpha.water
water volume fraction, min, max = 0.0858 0 1
MULES: Solving for alpha.oil
oil volume fraction, min, max = 0.119344 0 1
MULES: Solving for alpha.mercury
mercury volume fraction, min, max = 0.0443935 -3.04024e-22 1
MULES: Solving for alpha.air
air volume fraction, min, max = 0.750462 0 1
Phase-sum volume fraction, min, max = 1 0.999997 1
smoothSolver:  Solving for Ux, Initial residual = 0.301696, Final residual = 1.02735e-07, No Iterations 6
smoothSolver:  Solving for Uy, Initial residual = 0.237382, Final residual = 4.81469e-07, No Iterations 5
GAMG:  Solving for p_rgh, Initial residual = 0.000659862, Final residual = 2.26867e-05, No Iterations 2
time step continuity errors : sum local = 2.43781e-05, global = -2.58568e-06
GAMGPCG:  Solving for p_rgh, Initial residual = 0.00011783, Final residual = 6.16202e-08, No Iterations 6
time step continuity errors : sum local = 6.61646e-08, global = 3.69148e-09, cumulative = 1.94497e-09
smoothSolver:  Solving for epsilon, Initial residual = 0.00558913, Final residual = 9.5045e-08, No Iterations 3
smoothSolver:  Solving for k, Initial residual = 0.256203, Final residual = 7.92192e-07, No Iterations 4
ExecutionTime = 0.243855 s  ClockTime = 0 s

Courant Number mean: 0.00407192 max: 0.05484
Interface Courant Number mean: 4.23248e-05 max: 0.05484
deltaT = 0.0019075
Time = 0.00612753s

MULES: Solving for alpha.water
water volume fraction, min, max = 0.0858 -5.57732e-13 1
MULES: Solving for alpha.oil
oil volume fraction, min, max = 0.119344 -3.30898e-21 1
MULES: Solving for alpha.mercury
mercury volume fraction, min, max = 0.0443935 -1.01258e-18 1
MULES: Solving for alpha.air
air volume fraction, min, max = 0.750462 -1.33404e-21 1
Phase-sum volume fraction, min, max = 1 0.999997 1.00001
smoothSolver:  Solving for Ux, Initial residual = 0.236794, Final residual = 2.20981e-07, No Iterations 6
smoothSolver:  Solving for Uy, Initial residual = 0.184592, Final residual = 8.9792e-07, No Iterations 5
GAMG:  Solving for p_rgh, Initial residual = 0.000798889, Final residual = 1.08094e-05, No Iterations 2
time step continuity errors : sum local = 1.50981e-05, global = 1.31884e-06
GAMGPCG:  Solving for p_rgh, Initial residual = 0.000110941, Final residual = 6.46778e-08, No Iterations 4
time step continuity errors : sum local = 9.06114e-08, global = 1.8749e-08, cumulative = 2.06939e-08
smoothSolver:  Solving for epsilon, Initial residual = 0.00524221, Final residual = 1.69008e-07, No Iterations 3
smoothSolver:  Solving for k, Initial residual = 0.185205, Final residual = 1.67726e-07, No Iterations 5
ExecutionTime = 0.253173 s  ClockTime = 0 s

Courant Number mean: 0.00688806 max: 0.0873348
Interface Courant Number mean: 0.00013586 max: 0.0873348
deltaT = 0.00219362
Time = 0.00832115s

MULES: Solving for alpha.water
water volume fraction, min, max = 0.0858 -2.12814e-15 1
MULES: Solving for alpha.oil
oil volume fraction, min, max = 0.119344 -1.41615e-18 1
MULES: Solving for alpha.mercury
mercury volume fraction, min, max = 0.0443935 -1.14982e-14 1
MULES: Solving for alpha.air
air volume fraction, min, max = 0.750462 -1.22732e-20 1
Phase-sum volume fraction, min, max = 1 0.999993 1.00001
smoothSolver:  Solving for Ux, Initial residual = 0.197276, Final residual = 4.3056e-07, No Iterations 6
smoothSolver:  Solving for Uy, Initial residual = 0.152041, Final residual = 2.08714e-07, No Iterations 6
GAMG:  Solving for p_rgh, Initial residual = 0.000892278, Final residual = 6.06005e-06, No Iterations 2
time step continuity errors : sum local = 1.07441e-05, global = -8.77237e-07
GAMGPCG:  Solving for p_rgh, Initial residual = 0.000125947, Final residual = 5.18691e-08, No Iterations 4
time step continuity errors : sum local = 9.22287e-08, global = -1.63982e-08, cumulative = 4.29571e-09
smoothSolver:  Solving for epsilon, Initial residual = 0.00506382, Final residual = 3.18557e-07, No Iterations 3
smoothSolver:  Solving for k, Initial residual = 0.148697, Final residual = 4.17562e-07, No Iterations 5
ExecutionTime = 0.263075 s  ClockTime = 0 s

Courant Number mean: 0.0107411 max: 0.128432
Interface Courant Number mean: 0.000369961 max: 0.127488
deltaT = 0.00260493
Time = 0.0109261s

MULES: Solving for alpha.water
water volume fraction, min, max = 0.0858 -6.34709e-16 1
MULES: Solving for alpha.oil
oil volume fraction, min, max = 0.119344 -2.64857e-09 1
MULES: Solving for alpha.mercury
mercury volume fraction, min, max = 0.0443935 -1.04407e-10 1
MULES: Solving for alpha.air
air volume fraction, min, max = 0.750462 -1.20921e-20 1
Phase-sum volume fraction, min, max = 1 0.999995 1
smoothSolver:  Solving for Ux, Initial residual = 0.176904, Final residual = 1.74798e-07, No Iterations 7
smoothSolver:  Solving for Uy, Initial residual = 0.135708, Final residual = 5.26603e-07, No Iterations 6
GAMG:  Solving for p_rgh, Initial residual = 0.000981103, Final residual = 7.64567e-06, No Iterations 2
time step continuity errors : sum local = 1.8071e-05, global = 2.96588e-07
GAMGPCG:  Solving for p_rgh, Initial residual = 0.000147047, Final residual = 6.9689e-08, No Iterations 4
time step continuity errors : sum local = 1.65279e-07, global = -8.27282e-09, cumulative = -3.97711e-09
smoothSolver:  Solving for epsilon, Initial residual = 0.00513991, Final residual = 7.54297e-07, No Iterations 3
smoothSolver:  Solving for k, Initial residual = 0.131844, Final residual = 2.25738e-07, No Iterations 6
ExecutionTime = 0.272868 s  ClockTime = 0 s

Courant Number mean: 0.0166796 max: 0.190112
Interface Courant Number mean: 0.000615858 max: 0.185099
deltaT = 0.00300569
Time = 0.0139318s

MULES: Solving for alpha.water
water volume fraction, min, max = 0.0858 -3.71255e-15 1
MULES: Solving for alpha.oil
oil volume fraction, min, max = 0.119344 -1.82561e-18 1
MULES: Solving for alpha.mercury
mercury volume fraction, min, max = 0.0443935 -6.88757e-10 1
MULES: Solving for alpha.air
air volume fraction, min, max = 0.750462 -2.86427e-15 1
Phase-sum volume fraction, min, max = 1 0.999987 1
smoothSolver:  Solving for Ux, Initial residual = 0.158742, Final residual = 3.78009e-07, No Iterations 7
smoothSolver:  Solving for Uy, Initial residual = 0.121863, Final residual = 1.89165e-07, No Iterations 7
GAMG:  Solving for p_rgh, Initial residual = 0.000989504, Final residual = 7.42281e-06, No Iterations 2
time step continuity errors : sum local = 2.22271e-05, global = -5.25421e-07
GAMGPCG:  Solving for p_rgh, Initial residual = 0.000160534, Final residual = 1.57956e-08, No Iterations 4
time step continuity errors : sum local = 4.74734e-08, global = -3.16842e-08, cumulative = -3.56613e-08
smoothSolver:  Solving for epsilon, Initial residual = 0.00507825, Final residual = 2.03976e-07, No Iterations 4
smoothSolver:  Solving for k, Initial residual = 0.118077, Final residual = 6.97392e-07, No Iterations 6
ExecutionTime = 0.281984 s  ClockTime = 0 s

Courant Number mean: 0.0243808 max: 0.258545
Interface Courant Number mean: 0.00101292 max: 0.253082
deltaT = 0.00360682
Time = 0.0175386s

MULES: Solving for alpha.water
water volume fraction, min, max = 0.0858001 -7.53933e-11 1
MULES: Solving for alpha.oil
oil volume fraction, min, max = 0.119344 -8.17808e-19 1
MULES: Solving for alpha.mercury
mercury volume fraction, min, max = 0.0443935 -2.33429e-16 1
MULES: Solving for alpha.air
air volume fraction, min, max = 0.750462 -7.35682e-10 1
Phase-sum volume fraction, min, max = 1 0.999999 1
smoothSolver:  Solving for Ux, Initial residual = 0.150812, Final residual = 2.34333e-07, No Iterations 8
smoothSolver:  Solving for Uy, Initial residual = 0.116855, Final residual = 5.51217e-07, No Iterations 7
GAMG:  Solving for p_rgh, Initial residual = 0.00114097, Final residual = 5.70415e-05, No Iterations 1
time step continuity errors : sum local = 0.000229425, global = 1.89417e-08
GAMGPCG:  Solving for p_rgh, Initial residual = 0.000167134, Final residual = 5.91586e-08, No Iterations 5
time step continuity errors : sum local = 2.37584e-07, global = 1.00223e-08, cumulative = -2.5639e-08
smoothSolver:  Solving for epsilon, Initial residual = 0.00553121, Final residual = 6.57165e-07, No Iterations 4
smoothSolver:  Solving for k, Initial residual = 0.114553, Final residual = 6.53922e-07, No Iterations 7
ExecutionTime = 0.291366 s  ClockTime = 0 s

Courant Number mean: 0.0364993 max: 0.353124
Interface Courant Number mean: 0.0016362 max: 0.353124
deltaT = 0.00405768
Time = 0.0215963s

MULES: Solving for alpha.water
water volume fraction, min, max = 0.0858001 -7.63273e-18 1
MULES: Solving for alpha.oil
oil volume fraction, min, max = 0.119344 -6.4965e-10 1
MULES: Solving for alpha.mercury
mercury volume fraction, min, max = 0.0443935 -3.30782e-24 1
MULES: Solving for alpha.air
air volume fraction, min, max = 0.750462 -5.34854e-13 1.00001
Phase-sum volume fraction, min, max = 1 0.999981 1.00003
smoothSolver:  Solving for Ux, Initial residual = 0.1364, Final residual = 4.14747e-07, No Iterations 8
smoothSolver:  Solving for Uy, Initial residual = 0.106377, Final residual = 9.13453e-07, No Iterations 7
GAMG:  Solving for p_rgh, Initial residual = 0.00141395, Final residual = 5.99393e-05, No Iterations 1
time step continuity errors : sum local = 0.000292292, global = -3.97936e-07
GAMGPCG:  Solving for p_rgh, Initial residual = 0.000222066, Final residual = 6.39038e-08, No Iterations 5
time step continuity errors : sum local = 3.10542e-07, global = 3.4714e-08, cumulative = 9.07492e-09
smoothSolver:  Solving for epsilon, Initial residual = 0.00600785, Final residual = 3.00321e-07, No Iterations 5
smoothSolver:  Solving for k, Initial residual = 0.107793, Final residual = 4.88598e-07, No Iterations 8
ExecutionTime = 0.302172 s  ClockTime = 0 s

Courant Number mean: 0.0500096 max: 0.45672
Interface Courant Number mean: 0.00231312 max: 0.443205
deltaT = 0.00405768
Time = 0.0256539s

MULES: Solving for alpha.water
water volume fraction, min, max = 0.0858 -7.79832e-14 1
MULES: Solving for alpha.oil
oil volume fraction, min, max = 0.119344 -9.10229e-10 1
MULES: Solving for alpha.mercury
mercury volume fraction, min, max = 0.0443935 -1.97663e-13 1
MULES: Solving for alpha.air
air volume fraction, min, max = 0.750462 -1.99692e-11 1.00001
Phase-sum volume fraction, min, max = 1 0.999969 1.00005
smoothSolver:  Solving for Ux, Initial residual = 0.112479, Final residual = 2.73402e-07, No Iterations 8
smoothSolver:  Solving for Uy, Initial residual = 0.0885787, Final residual = 6.30941e-07, No Iterations 7
GAMG:  Solving for p_rgh, Initial residual = 0.00155403, Final residual = 6.4904e-05, No Iterations 1
time step continuity errors : sum local = 0.000318868, global = -4.23042e-07
GAMGPCG:  Solving for p_rgh, Initial residual = 0.000244952, Final residual = 7.67927e-08, No Iterations 5
time step continuity errors : sum local = 3.757e-07, global = 3.34591e-08, cumulative = 4.2534e-08
smoothSolver:  Solving for epsilon, Initial residual = 0.00593428, Final residual = 4.04468e-07, No Iterations 5
smoothSolver:  Solving for k, Initial residual = 0.0941723, Final residual = 5.94302e-07, No Iterations 8
ExecutionTime = 0.312544 s  ClockTime = 0 s

Courant Number mean: 0.0587579 max: 0.505909
Interface Courant Number mean: 0.00286565 max: 0.480492
deltaT = 0.00347801
Time = 0.029132s

MULES: Solving for alpha.water
water volume fraction, min, max = 0.0858 -1.88273e-12 1
MULES: Solving for alpha.oil
oil volume fraction, min, max = 0.119344 -8.38928e-10 1
MULES: Solving for alpha.mercury
mercury volume fraction, min, max = 0.0443935 -1.25062e-26 1
MULES: Solving for alpha.air
air volume fraction, min, max = 0.750462 -1.80222e-11 1.00001
Phase-sum volume fraction, min, max = 1 0.99997 1.00005
smoothSolver:  Solving for Ux, Initial residual = 0.0820178, Final residual = 2.52763e-07, No Iterations 7
smoothSolver:  Solving for Uy, Initial residual = 0.0644916, Final residual = 6.95729e-07, No Iterations 6
GAMG:  Solving for p_rgh, Initial residual = 0.00159369, Final residual = 1.50507e-05, No Iterations 2
time step continuity errors : sum local = 5.85424e-05, global = -3.69974e-07
GAMGPCG:  Solving for p_rgh, Initial residual = 0.000220932, Final residual = 5.57053e-08, No Iterations 4
time step continuity errors : sum local = 2.16667e-07, global = 1.11876e-07, cumulative = 1.5441e-07
smoothSolver:  Solving for epsilon, Initial residual = 0.00513556, Final residual = 2.15527e-07, No Iterations 5
smoothSolver:  Solving for k, Initial residual = 0.0738511, Final residual = 8.34386e-07, No Iterations 7
ExecutionTime = 0.324963 s  ClockTime = 0 s

Courant Number mean: 0.0566777 max: 0.45065
Interface Courant Number mean: 0.00282392 max: 0.435131
deltaT = 0.00347801
Time = 0.03261s

MULES: Solving for alpha.water
water volume fraction, min, max = 0.0858 -2.51299e-13 1
MULES: Solving for alpha.oil
oil volume fraction, min, max = 0.119344 -1.68803e-12 1
MULES: Solving for alpha.mercury
mercury volume fraction, min, max = 0.0443935 -1.42648e-13 1
MULES: Solving for alpha.air
air volume fraction, min, max = 0.750462 -1.88282e-11 1
Phase-sum volume fraction, min, max = 1 0.999997 1
smoothSolver:  Solving for Ux, Initial residual = 0.0723172, Final residual = 2.09625e-07, No Iterations 7
smoothSolver:  Solving for Uy, Initial residual = 0.0573286, Final residual = 5.6758e-07, No Iterations 6
GAMG:  Solving for p_rgh, Initial residual = 0.00185056, Final residual = 1.92768e-05, No Iterations 2
time step continuity errors : sum local = 7.52477e-05, global = -2.08155e-07
GAMGPCG:  Solving for p_rgh, Initial residual = 0.000266188, Final residual = 5.83763e-08, No Iterations 4
time step continuity errors : sum local = 2.28386e-07, global = 1.35139e-07, cumulative = 2.89549e-07
smoothSolver:  Solving for epsilon, Initial residual = 0.00530196, Final residual = 2.88603e-07, No Iterations 5
smoothSolver:  Solving for k, Initial residual = 0.0696013, Final residual = 9.76903e-07, No Iterations 7
ExecutionTime = 0.335246 s  ClockTime = 0 s

Courant Number mean: 0.0628745 max: 0.48309
Interface Courant Number mean: 0.00324806 max: 0.459487
deltaT = 0.00347801
Time = 0.036088s

MULES: Solving for alpha.water
water volume fraction, min, max = 0.0858001 -4.50003e-13 1
MULES: Solving for alpha.oil
oil volume fraction, min, max = 0.119344 -1.32109e-12 1
MULES: Solving for alpha.mercury
mercury volume fraction, min, max = 0.0443935 -2.78498e-10 1
MULES: Solving for alpha.air
air volume fraction, min, max = 0.750462 -1.80425e-09 1
Phase-sum volume fraction, min, max = 1 0.999997 1
smoothSolver:  Solving for Ux, Initial residual = 0.0641391, Final residual = 8.92484e-07, No Iterations 6
smoothSolver:  Solving for Uy, Initial residual = 0.050999, Final residual = 4.86494e-07, No Iterations 6
GAMG:  Solving for p_rgh, Initial residual = 0.0017693, Final residual = 8.50343e-05, No Iterations 1
time step continuity errors : sum local = 0.00033414, global = -3.72064e-07
GAMGPCG:  Solving for p_rgh, Initial residual = 0.000244876, Final residual = 6.66083e-08, No Iterations 5
time step continuity errors : sum local = 2.60544e-07, global = 8.48414e-08, cumulative = 3.7439e-07
smoothSolver:  Solving for epsilon, Initial residual = 0.00563664, Final residual = 3.85658e-07, No Iterations 5
smoothSolver:  Solving for k, Initial residual = 0.0665906, Final residual = 2.9907e-07, No Iterations 8
ExecutionTime = 0.345111 s  ClockTime = 0 s

Courant Number mean: 0.0689511 max: 0.505284
Interface Courant Number mean: 0.00365843 max: 0.496164
deltaT = 0.00278241
Time = 0.0388704s

MULES: Solving for alpha.water
water volume fraction, min, max = 0.0858001 -2.32522e-10 1
MULES: Solving for alpha.oil
oil volume fraction, min, max = 0.119344 -1.33455e-09 1
MULES: Solving for alpha.mercury
mercury volume fraction, min, max = 0.0443935 -7.51867e-09 1
MULES: Solving for alpha.air
air volume fraction, min, max = 0.750462 -1.29941e-11 1
Phase-sum volume fraction, min, max = 1 0.999996 1.00001
smoothSolver:  Solving for Ux, Initial residual = 0.0456563, Final residual = 9.11635e-07, No Iterations 5
smoothSolver:  Solving for Uy, Initial residual = 0.0357955, Final residual = 5.25042e-07, No Iterations 5
GAMG:  Solving for p_rgh, Initial residual = 0.00194436, Final residual = 7.83551e-05, No Iterations 1
time step continuity errors : sum local = 0.000217072, global = -6.61121e-07
GAMGPCG:  Solving for p_rgh, Initial residual = 0.000238992, Final residual = 8.96829e-08, No Iterations 4
time step continuity errors : sum local = 2.47678e-07, global = -8.09886e-08, cumulative = 2.93401e-07
smoothSolver:  Solving for epsilon, Initial residual = 0.00504196, Final residual = 7.44764e-07, No Iterations 4
smoothSolver:  Solving for k, Initial residual = 0.0515068, Final residual = 2.45048e-07, No Iterations 7
ExecutionTime = 0.355951 s  ClockTime = 0 s

Courant Number mean: 0.0590004 max: 0.419626
Interface Courant Number mean: 0.00313894 max: 0.41016
deltaT = 0.00278241
Time = 0.0416528s

MULES: Solving for alpha.water
water volume fraction, min, max = 0.0858001 -9.21217e-12 1
MULES: Solving for alpha.oil
oil volume fraction, min, max = 0.119344 -6.99462e-07 1
MULES: Solving for alpha.mercury
mercury volume fraction, min, max = 0.0443935 -2.521e-14 1
MULES: Solving for alpha.air
air volume fraction, min, max = 0.750462 -1.31422e-14 1.00001
Phase-sum volume fraction, min, max = 1 0.999995 1.00001
smoothSolver:  Solving for Ux, Initial residual = 0.0418849, Final residual = 8.70305e-07, No Iterations 5
smoothSolver:  Solving for Uy, Initial residual = 0.0332196, Final residual = 5.00484e-07, No Iterations 5
GAMG:  Solving for p_rgh, Initial residual = 0.00194969, Final residual = 8.26097e-05, No Iterations 1
time step continuity errors : sum local = 0.000229428, global = -4.91198e-07
GAMGPCG:  Solving for p_rgh, Initial residual = 0.00023644, Final residual = 6.06356e-08, No Iterations 4
time step continuity errors : sum local = 1.6818e-07, global = 5.81291e-08, cumulative = 3.5153e-07
smoothSolver:  Solving for epsilon, Initial residual = 0.0054414, Final residual = 8.99695e-07, No Iterations 4
smoothSolver:  Solving for k, Initial residual = 0.0501921, Final residual = 2.72702e-07, No Iterations 7
ExecutionTime = 0.366565 s  ClockTime = 0 s

Courant Number mean: 0.0627913 max: 0.437559
Interface Courant Number mean: 0.00320138 max: 0.437559
deltaT = 0.00278241
Time = 0.0444352s

MULES: Solving for alpha.water
water volume fraction, min, max = 0.0858001 -4.91368e-11 1
MULES: Solving for alpha.oil
oil volume fraction, min, max = 0.119344 -2.1548e-07 1
MULES: Solving for alpha.mercury
mercury volume fraction, min, max = 0.0443935 -1.24425e-37 1
MULES: Solving for alpha.air
air volume fraction, min, max = 0.750462 -3.0994e-11 1.00001
Phase-sum volume fraction, min, max = 1 0.999996 1.00001
smoothSolver:  Solving for Ux, Initial residual = 0.0384509, Final residual = 7.87215e-07, No Iterations 5
smoothSolver:  Solving for Uy, Initial residual = 0.0308734, Final residual = 4.85813e-07, No Iterations 5
GAMG:  Solving for p_rgh, Initial residual = 0.00230562, Final residual = 3.25094e-05, No Iterations 2
time step continuity errors : sum local = 9.0657e-05, global = 6.5047e-07
GAMGPCG:  Solving for p_rgh, Initial residual = 0.000265609, Final residual = 8.03433e-08, No Iterations 4
time step continuity errors : sum local = 2.24555e-07, global = 4.02198e-08, cumulative = 3.9175e-07
smoothSolver:  Solving for epsilon, Initial residual = 0.00589499, Final residual = 1.88159e-07, No Iterations 5
smoothSolver:  Solving for k, Initial residual = 0.049192, Final residual = 2.99451e-07, No Iterations 7
ExecutionTime = 0.376582 s  ClockTime = 0 s

Courant Number mean: 0.0664961 max: 0.456456
Interface Courant Number mean: 0.00353559 max: 0.456456
deltaT = 0.00278241
Time = 0.0472176s

MULES: Solving for alpha.water
water volume fraction, min, max = 0.0858001 -1.82441e-14 1
MULES: Solving for alpha.oil
oil volume fraction, min, max = 0.119344 -3.3381e-08 1
MULES: Solving for alpha.mercury
mercury volume fraction, min, max = 0.0443935 -5.2678e-38 1
MULES: Solving for alpha.air
air volume fraction, min, max = 0.750462 -3.24003e-13 1.00001
Phase-sum volume fraction, min, max = 1 0.999991 1.00001
smoothSolver:  Solving for Ux, Initial residual = 0.035169, Final residual = 7.60388e-07, No Iterations 5
smoothSolver:  Solving for Uy, Initial residual = 0.0287978, Final residual = 4.78982e-07, No Iterations 5
GAMG:  Solving for p_rgh, Initial residual = 0.00247114, Final residual = 3.76736e-05, No Iterations 2
time step continuity errors : sum local = 0.000105293, global = 9.09867e-08
GAMGPCG:  Solving for p_rgh, Initial residual = 0.000293435, Final residual = 6.11785e-08, No Iterations 5
time step continuity errors : sum local = 1.71089e-07, global = -5.34735e-08, cumulative = 3.38277e-07
smoothSolver:  Solving for epsilon, Initial residual = 0.00647111, Final residual = 2.25712e-07, No Iterations 5
smoothSolver:  Solving for k, Initial residual = 0.0478669, Final residual = 3.20717e-07, No Iterations 7
ExecutionTime = 0.386024 s  ClockTime = 0 s

Courant Number mean: 0.070157 max: 0.474776
Interface Courant Number mean: 0.00390912 max: 0.474776
deltaT = 0.00278241
Time = 0.05s

MULES: Solving for alpha.water
water volume fraction, min, max = 0.0858001 -3.2224e-18 1
MULES: Solving for alpha.oil
oil volume fraction, min, max = 0.119344 -8.79269e-10 1
MULES: Solving for alpha.mercury
mercury volume fraction, min, max = 0.0443935 -2.14436e-08 1
MULES: Solving for alpha.air
air volume fraction, min, max = 0.750462 -2.07427e-10 1
Phase-sum volume fraction, min, max = 1 0.999997 1
smoothSolver:  Solving for Ux, Initial residual = 0.0324304, Final residual = 7.13042e-07, No Iterations 5
smoothSolver:  Solving for Uy, Initial residual = 0.0266628, Final residual = 4.84471e-07, No Iterations 5
GAMG:  Solving for p_rgh, Initial residual = 0.00270823, Final residual = 4.29335e-05, No Iterations 2
time step continuity errors : sum local = 0.000120649, global = 3.51606e-07
GAMGPCG:  Solving for p_rgh, Initial residual = 0.000309498, Final residual = 6.77312e-08, No Iterations 5
time step continuity errors : sum local = 1.89771e-07, global = -3.02688e-08, cumulative = 3.08008e-07
smoothSolver:  Solving for epsilon, Initial residual = 0.00705907, Final residual = 2.66528e-07, No Iterations 5
smoothSolver:  Solving for k, Initial residual = 0.0458189, Final residual = 3.34332e-07, No Iterations 7
ExecutionTime = 0.403816 s  ClockTime = 0 s

Courant Number mean: 0.0737555 max: 0.489317
Interface Courant Number mean: 0.00445212 max: 0.436926
deltaT = 0.00277778
Time = 0.0527778s

MULES: Solving for alpha.water
water volume fraction, min, max = 0.0858001 -2.82003e-18 1
MULES: Solving for alpha.oil
oil volume fraction, min, max = 0.119344 -4.22638e-10 1
MULES: Solving for alpha.mercury
mercury volume fraction, min, max = 0.0443935 -4.42335e-12 1
MULES: Solving for alpha.air
air volume fraction, min, max = 0.750462 -3.84289e-10 1
Phase-sum volume fraction, min, max = 1 0.999996 1
smoothSolver:  Solving for Ux, Initial residual = 0.0298482, Final residual = 6.83628e-07, No Iterations 5
smoothSolver:  Solving for Uy, Initial residual = 0.0246004, Final residual = 4.77083e-07, No Iterations 5
GAMG:  Solving for p_rgh, Initial residual = 0.00284573, Final residual = 4.41027e-05, No Iterations 2
time step continuity errors : sum local = 0.000124153, global = 2.97462e-07
GAMGPCG:  Solving for p_rgh, Initial residual = 0.000317811, Final residual = 6.46253e-08, No Iterations 5
time step continuity errors : sum local = 1.81089e-07, global = -3.19171e-08, cumulative = 2.76091e-07
smoothSolver:  Solving for epsilon, Initial residual = 0.00760071, Final residual = 3.06827e-07, No Iterations 5
smoothSolver:  Solving for k, Initial residual = 0.0434228, Final residual = 3.38168e-07, No Iterations 7
ExecutionTime = 0.416193 s  ClockTime = 0 s

Courant Number mean: 0.0772222 max: 0.502848
Interface Courant Number mean: 0.00505074 max: 0.456231
deltaT = 0.00262346
Time = 0.0554012s

MULES: Solving for alpha.water
water volume fraction, min, max = 0.0858001 -2.05674e-17 1
MULES: Solving for alpha.oil
oil volume fraction, min, max = 0.119344 -4.41758e-10 1
MULES: Solving for alpha.mercury
mercury volume fraction, min, max = 0.0443935 -4.7457e-19 1
MULES: Solving for alpha.air
air volume fraction, min, max = 0.750462 -7.59484e-10 1
Phase-sum volume fraction, min, max = 1 0.999997 1
smoothSolver:  Solving for Ux, Initial residual = 0.0260211, Final residual = 4.57254e-07, No Iterations 5
smoothSolver:  Solving for Uy, Initial residual = 0.0214118, Final residual = 3.39208e-07, No Iterations 5
GAMG:  Solving for p_rgh, Initial residual = 0.00288878, Final residual = 3.88576e-05, No Iterations 2
time step continuity errors : sum local = 9.99101e-05, global = 1.20876e-07
GAMGPCG:  Solving for p_rgh, Initial residual = 0.000300177, Final residual = 6.61913e-08, No Iterations 4
time step continuity errors : sum local = 1.69364e-07, global = 9.77086e-08, cumulative = 3.73799e-07
smoothSolver:  Solving for epsilon, Initial residual = 0.00767893, Final residual = 2.45136e-07, No Iterations 5
smoothSolver:  Solving for k, Initial residual = 0.0390131, Final residual = 9.70767e-07, No Iterations 6
ExecutionTime = 0.426997 s  ClockTime = 0 s

Courant Number mean: 0.07609 max: 0.488108
Interface Courant Number mean: 0.00519156 max: 0.404046
deltaT = 0.00262346
Time = 0.0580247s

MULES: Solving for alpha.water
water volume fraction, min, max = 0.0858001 -1.00045e-13 1
MULES: Solving for alpha.oil
oil volume fraction, min, max = 0.119344 -1.39278e-10 1
MULES: Solving for alpha.mercury
mercury volume fraction, min, max = 0.0443935 -1.81456e-10 1
MULES: Solving for alpha.air
air volume fraction, min, max = 0.750462 -1.39371e-10 1
Phase-sum volume fraction, min, max = 1 0.999999 1
smoothSolver:  Solving for Ux, Initial residual = 0.0242714, Final residual = 4.62052e-07, No Iterations 5
smoothSolver:  Solving for Uy, Initial residual = 0.0199906, Final residual = 3.5047e-07, No Iterations 5
GAMG:  Solving for p_rgh, Initial residual = 0.00314144, Final residual = 3.92928e-05, No Iterations 2
time step continuity errors : sum local = 0.000101296, global = 3.67587e-07
GAMGPCG:  Solving for p_rgh, Initial residual = 0.000335523, Final residual = 5.18263e-08, No Iterations 5
time step continuity errors : sum local = 1.32828e-07, global = -2.85811e-08, cumulative = 3.45218e-07
smoothSolver:  Solving for epsilon, Initial residual = 0.00817937, Final residual = 2.73079e-07, No Iterations 5
smoothSolver:  Solving for k, Initial residual = 0.0371707, Final residual = 9.55585e-07, No Iterations 6
ExecutionTime = 0.436364 s  ClockTime = 0 s

Courant Number mean: 0.0792153 max: 0.500473
Interface Courant Number mean: 0.00555019 max: 0.421018
deltaT = 0.00246914
Time = 0.0604938s

MULES: Solving for alpha.water
water volume fraction, min, max = 0.0858001 -2.21995e-14 1
MULES: Solving for alpha.oil
oil volume fraction, min, max = 0.119344 -2.41128e-10 1
MULES: Solving for alpha.mercury
mercury volume fraction, min, max = 0.0443935 -1.32806e-21 1
MULES: Solving for alpha.air
air volume fraction, min, max = 0.750462 -7.8372e-11 1
Phase-sum volume fraction, min, max = 1 0.999999 1
smoothSolver:  Solving for Ux, Initial residual = 0.0212278, Final residual = 3.08081e-07, No Iterations 5
smoothSolver:  Solving for Uy, Initial residual = 0.0174773, Final residual = 2.40643e-07, No Iterations 5
GAMG:  Solving for p_rgh, Initial residual = 0.00328799, Final residual = 4.18141e-05, No Iterations 2
time step continuity errors : sum local = 9.77835e-05, global = 4.51433e-08
GAMGPCG:  Solving for p_rgh, Initial residual = 0.000344104, Final residual = 7.0664e-08, No Iterations 4
time step continuity errors : sum local = 1.64336e-07, global = 4.80804e-08, cumulative = 3.93299e-07
smoothSolver:  Solving for epsilon, Initial residual = 0.00817269, Final residual = 2.02531e-07, No Iterations 5
smoothSolver:  Solving for k, Initial residual = 0.03323, Final residual = 6.13531e-07, No Iterations 6
ExecutionTime = 0.445497 s  ClockTime = 0 s

Courant Number mean: 0.0772833 max: 0.481313
Interface Courant Number mean: 0.00531366 max: 0.373175
deltaT = 0.00246914
Time = 0.062963s

MULES: Solving for alpha.water
water volume fraction, min, max = 0.0858001 -3.63218e-13 1
MULES: Solving for alpha.oil
oil volume fraction, min, max = 0.119344 -1.38196e-09 1
MULES: Solving for alpha.mercury
mercury volume fraction, min, max = 0.0443935 -1.15066e-14 1
MULES: Solving for alpha.air
air volume fraction, min, max = 0.750462 -4.05926e-10 1
Phase-sum volume fraction, min, max = 1 0.999998 1
smoothSolver:  Solving for Ux, Initial residual = 0.0198522, Final residual = 3.16173e-07, No Iterations 5
smoothSolver:  Solving for Uy, Initial residual = 0.0165465, Final residual = 2.50339e-07, No Iterations 5
GAMG:  Solving for p_rgh, Initial residual = 0.00365875, Final residual = 4.75397e-05, No Iterations 2
time step continuity errors : sum local = 0.000111396, global = 7.15154e-07
GAMGPCG:  Solving for p_rgh, Initial residual = 0.000397545, Final residual = 9.0701e-08, No Iterations 4
time step continuity errors : sum local = 2.11276e-07, global = 1.39793e-08, cumulative = 4.07278e-07
smoothSolver:  Solving for epsilon, Initial residual = 0.00858137, Final residual = 2.14705e-07, No Iterations 5
smoothSolver:  Solving for k, Initial residual = 0.03168, Final residual = 5.85587e-07, No Iterations 6
ExecutionTime = 0.454357 s  ClockTime = 0 s

Courant Number mean: 0.0799565 max: 0.490887
Interface Courant Number mean: 0.00553665 max: 0.387125
deltaT = 0.00246914
Time = 0.0654321s

MULES: Solving for alpha.water
water volume fraction, min, max = 0.0858001 -5.49245e-12 1
MULES: Solving for alpha.oil
oil volume fraction, min, max = 0.119344 -3.74498e-10 1
MULES: Solving for alpha.mercury
mercury volume fraction, min, max = 0.0443935 -3.38547e-43 1
MULES: Solving for alpha.air
air volume fraction, min, max = 0.750462 -1.31414e-11 1
Phase-sum volume fraction, min, max = 1 0.999997 1
smoothSolver:  Solving for Ux, Initial residual = 0.0186242, Final residual = 3.13864e-07, No Iterations 5
smoothSolver:  Solving for Uy, Initial residual = 0.0156821, Final residual = 2.49808e-07, No Iterations 5
GAMG:  Solving for p_rgh, Initial residual = 0.00382881, Final residual = 5.17607e-05, No Iterations 2
time step continuity errors : sum local = 0.000121444, global = 6.52149e-07
GAMGPCG:  Solving for p_rgh, Initial residual = 0.000432153, Final residual = 6.29628e-08, No Iterations 4
time step continuity errors : sum local = 1.46769e-07, global = 2.99181e-08, cumulative = 4.37196e-07
smoothSolver:  Solving for epsilon, Initial residual = 0.008911, Final residual = 2.22901e-07, No Iterations 5
smoothSolver:  Solving for k, Initial residual = 0.0301733, Final residual = 5.52238e-07, No Iterations 6
ExecutionTime = 0.464256 s  ClockTime = 0 s

Courant Number mean: 0.0825538 max: 0.499905
Interface Courant Number mean: 0.00549879 max: 0.365246
deltaT = 0.00246914
Time = 0.0679012s

MULES: Solving for alpha.water
water volume fraction, min, max = 0.0858001 -7.0775e-13 1
MULES: Solving for alpha.oil
oil volume fraction, min, max = 0.119344 -2.28763e-08 1
MULES: Solving for alpha.mercury
mercury volume fraction, min, max = 0.0443935 -4.17697e-44 1
MULES: Solving for alpha.air
air volume fraction, min, max = 0.750462 -3.86629e-09 1
Phase-sum volume fraction, min, max = 1 0.999998 1
smoothSolver:  Solving for Ux, Initial residual = 0.0175066, Final residual = 3.17138e-07, No Iterations 5
smoothSolver:  Solving for Uy, Initial residual = 0.0149022, Final residual = 2.56565e-07, No Iterations 5
GAMG:  Solving for p_rgh, Initial residual = 0.00394405, Final residual = 5.51006e-05, No Iterations 2
time step continuity errors : sum local = 0.00012941, global = 7.11648e-07
GAMGPCG:  Solving for p_rgh, Initial residual = 0.000440023, Final residual = 7.53182e-08, No Iterations 4
time step continuity errors : sum local = 1.75524e-07, global = 2.3065e-08, cumulative = 4.60261e-07
smoothSolver:  Solving for epsilon, Initial residual = 0.00923468, Final residual = 2.32384e-07, No Iterations 5
smoothSolver:  Solving for k, Initial residual = 0.0289903, Final residual = 5.27676e-07, No Iterations 6
ExecutionTime = 0.474439 s  ClockTime = 0 s

Courant Number mean: 0.0850917 max: 0.508626
Interface Courant Number mean: 0.00581276 max: 0.37813
deltaT = 0.00229277
Time = 0.070194s

MULES: Solving for alpha.water
water volume fraction, min, max = 0.0858001 -4.98672e-14 1
MULES: Solving for alpha.oil
oil volume fraction, min, max = 0.119344 -1.43675e-10 1
MULES: Solving for alpha.mercury
mercury volume fraction, min, max = 0.0443935 -4.29117e-45 1
MULES: Solving for alpha.air
air volume fraction, min, max = 0.750462 -4.04708e-12 1
Phase-sum volume fraction, min, max = 1 0.999997 1
smoothSolver:  Solving for Ux, Initial residual = 0.0151438, Final residual = 1.98978e-07, No Iterations 5
smoothSolver:  Solving for Uy, Initial residual = 0.0129684, Final residual = 8.49265e-07, No Iterations 4
GAMG:  Solving for p_rgh, Initial residual = 0.00393518, Final residual = 5.66074e-05, No Iterations 2
time step continuity errors : sum local = 0.000117628, global = 5.50369e-07
GAMGPCG:  Solving for p_rgh, Initial residual = 0.000432146, Final residual = 8.23283e-08, No Iterations 4
time step continuity errors : sum local = 1.6977e-07, global = 2.24205e-08, cumulative = 4.82682e-07
smoothSolver:  Solving for epsilon, Initial residual = 0.00898745, Final residual = 9.32579e-07, No Iterations 4
smoothSolver:  Solving for k, Initial residual = 0.0259178, Final residual = 3.05352e-07, No Iterations 6
ExecutionTime = 0.485339 s  ClockTime = 0 s

Courant Number mean: 0.081186 max: 0.479616
Interface Courant Number mean: 0.00579994 max: 0.329972
deltaT = 0.00229277
Time = 0.0724868s

MULES: Solving for alpha.water
water volume fraction, min, max = 0.0858001 -3.76227e-15 1
MULES: Solving for alpha.oil
oil volume fraction, min, max = 0.119344 -6.01835e-11 1
MULES: Solving for alpha.mercury
mercury volume fraction, min, max = 0.0443935 -3.64933e-46 1
MULES: Solving for alpha.air
air volume fraction, min, max = 0.750462 -1.22935e-11 1
Phase-sum volume fraction, min, max = 1 0.999996 1
smoothSolver:  Solving for Ux, Initial residual = 0.0142656, Final residual = 2.00103e-07, No Iterations 5
smoothSolver:  Solving for Uy, Initial residual = 0.0124023, Final residual = 8.43209e-07, No Iterations 4
GAMG:  Solving for p_rgh, Initial residual = 0.0043732, Final residual = 6.58871e-05, No Iterations 2
time step continuity errors : sum local = 0.000136945, global = 9.15839e-07
GAMGPCG:  Solving for p_rgh, Initial residual = 0.000497184, Final residual = 4.31622e-08, No Iterations 5
time step continuity errors : sum local = 8.89602e-08, global = 9.57975e-10, cumulative = 4.8364e-07
smoothSolver:  Solving for epsilon, Initial residual = 0.00943597, Final residual = 9.6555e-07, No Iterations 4
smoothSolver:  Solving for k, Initial residual = 0.0251993, Final residual = 2.95605e-07, No Iterations 6
ExecutionTime = 0.494581 s  ClockTime = 1 s

Courant Number mean: 0.0833537 max: 0.486663
Interface Courant Number mean: 0.00582504 max: 0.340084
deltaT = 0.00229277
Time = 0.0747795s

MULES: Solving for alpha.water
water volume fraction, min, max = 0.0858001 -1.60057e-10 1
MULES: Solving for alpha.oil
oil volume fraction, min, max = 0.119344 -5.60743e-07 1
MULES: Solving for alpha.mercury
mercury volume fraction, min, max = 0.0443935 -5.23623e-12 1
MULES: Solving for alpha.air
air volume fraction, min, max = 0.750462 -1.25103e-12 1
Phase-sum volume fraction, min, max = 1 0.999997 1
smoothSolver:  Solving for Ux, Initial residual = 0.0134682, Final residual = 2.00024e-07, No Iterations 5
smoothSolver:  Solving for Uy, Initial residual = 0.0118599, Final residual = 8.35158e-07, No Iterations 4
GAMG:  Solving for p_rgh, Initial residual = 0.00471312, Final residual = 7.11484e-05, No Iterations 2
time step continuity errors : sum local = 0.000147844, global = 1.1349e-06
GAMGPCG:  Solving for p_rgh, Initial residual = 0.000552934, Final residual = 5.52193e-08, No Iterations 5
time step continuity errors : sum local = 1.13798e-07, global = 1.44269e-08, cumulative = 4.98066e-07
smoothSolver:  Solving for epsilon, Initial residual = 0.00983242, Final residual = 1.64787e-07, No Iterations 5
smoothSolver:  Solving for k, Initial residual = 0.0244319, Final residual = 2.898e-07, No Iterations 6
ExecutionTime = 0.504144 s  ClockTime = 1 s

Courant Number mean: 0.0854845 max: 0.49347
Interface Courant Number mean: 0.00594055 max: 0.349758
deltaT = 0.00229277
Time = 0.0770723s

MULES: Solving for alpha.water
water volume fraction, min, max = 0.0858001 -1.46755e-10 1
MULES: Solving for alpha.oil
oil volume fraction, min, max = 0.119344 -2.40976e-11 1
MULES: Solving for alpha.mercury
mercury volume fraction, min, max = 0.0443935 -3.19611e-12 1
MULES: Solving for alpha.air
air volume fraction, min, max = 0.750462 -6.82628e-13 1
Phase-sum volume fraction, min, max = 1 0.999996 1
smoothSolver:  Solving for Ux, Initial residual = 0.0126864, Final residual = 1.9768e-07, No Iterations 5
smoothSolver:  Solving for Uy, Initial residual = 0.0113554, Final residual = 8.22587e-07, No Iterations 4
GAMG:  Solving for p_rgh, Initial residual = 0.00427577, Final residual = 6.3969e-05, No Iterations 2
time step continuity errors : sum local = 0.000132938, global = 7.14914e-07
GAMGPCG:  Solving for p_rgh, Initial residual = 0.000506698, Final residual = 1.46234e-08, No Iterations 6
time step continuity errors : sum local = 3.01484e-08, global = -4.70899e-09, cumulative = 4.93357e-07
smoothSolver:  Solving for epsilon, Initial residual = 0.0101561, Final residual = 1.74123e-07, No Iterations 5
smoothSolver:  Solving for k, Initial residual = 0.0237418, Final residual = 2.87683e-07, No Iterations 6
ExecutionTime = 0.513478 s  ClockTime = 1 s

Courant Number mean: 0.087586 max: 0.50005
Interface Courant Number mean: 0.00613603 max: 0.327665
deltaT = 0.00229277
Time = 0.0793651s

MULES: Solving for alpha.water
water volume fraction, min, max = 0.0858001 -1.34324e-10 1
MULES: Solving for alpha.oil
oil volume fraction, min, max = 0.119344 -9.8296e-09 1
MULES: Solving for alpha.mercury
mercury volume fraction, min, max = 0.0443935 -1.7057e-09 1
MULES: Solving for alpha.air
air volume fraction, min, max = 0.750462 -4.33208e-10 1
Phase-sum volume fraction, min, max = 1 0.999999 1
smoothSolver:  Solving for Ux, Initial residual = 0.0120288, Final residual = 1.9781e-07, No Iterations 5
smoothSolver:  Solving for Uy, Initial residual = 0.0109109, Final residual = 8.09247e-07, No Iterations 4
GAMG:  Solving for p_rgh, Initial residual = 0.00382674, Final residual = 5.56267e-05, No Iterations 2
time step continuity errors : sum local = 0.000116057, global = 9.22535e-07
GAMGPCG:  Solving for p_rgh, Initial residual = 0.000456238, Final residual = 1.94747e-08, No Iterations 6
time step continuity errors : sum local = 4.03511e-08, global = -5.92193e-09, cumulative = 4.87435e-07
smoothSolver:  Solving for epsilon, Initial residual = 0.010502, Final residual = 1.83619e-07, No Iterations 5
smoothSolver:  Solving for k, Initial residual = 0.0230835, Final residual = 2.86034e-07, No Iterations 6
ExecutionTime = 0.522645 s  ClockTime = 1 s

Courant Number mean: 0.0896477 max: 0.506429
Interface Courant Number mean: 0.00588719 max: 0.336591
deltaT = 0.00206349
Time = 0.0814286s

MULES: Solving for alpha.water
water volume fraction, min, max = 0.0858001 -1.23867e-10 1
MULES: Solving for alpha.oil
oil volume fraction, min, max = 0.119344 -1.22417e-06 1
MULES: Solving for alpha.mercury
mercury volume fraction, min, max = 0.0443935 -2.73367e-09 1
MULES: Solving for alpha.air
air volume fraction, min, max = 0.750462 -3.59692e-09 1
Phase-sum volume fraction, min, max = 1 0.999998 1
smoothSolver:  Solving for Ux, Initial residual = 0.0100918, Final residual = 6.52874e-07, No Iterations 4
smoothSolver:  Solving for Uy, Initial residual = 0.00912831, Final residual = 4.44971e-07, No Iterations 4
GAMG:  Solving for p_rgh, Initial residual = 0.00277075, Final residual = 9.52127e-05, No Iterations 1
time step continuity errors : sum local = 0.000168506, global = -3.26866e-07
GAMGPCG:  Solving for p_rgh, Initial residual = 0.000279991, Final residual = 2.56196e-08, No Iterations 6
time step continuity errors : sum local = 4.49526e-08, global = -5.15243e-09, cumulative = 4.82283e-07
smoothSolver:  Solving for epsilon, Initial residual = 0.00981892, Final residual = 6.41636e-07, No Iterations 4
smoothSolver:  Solving for k, Initial residual = 0.0202367, Final residual = 6.91289e-07, No Iterations 5
ExecutionTime = 0.53135 s  ClockTime = 1 s

Courant Number mean: 0.082328 max: 0.460923
Interface Courant Number mean: 0.00579842 max: 0.30977
deltaT = 0.00206349
Time = 0.0834921s

MULES: Solving for alpha.water
water volume fraction, min, max = 0.0858001 -1.14053e-10 1
MULES: Solving for alpha.oil
oil volume fraction, min, max = 0.119344 -5.66723e-11 1
MULES: Solving for alpha.mercury
mercury volume fraction, min, max = 0.0443935 -3.57607e-10 1
MULES: Solving for alpha.air
air volume fraction, min, max = 0.750462 -3.16434e-09 1
Phase-sum volume fraction, min, max = 1 0.999998 1
smoothSolver:  Solving for Ux, Initial residual = 0.00953047, Final residual = 6.33198e-07, No Iterations 4
smoothSolver:  Solving for Uy, Initial residual = 0.00868684, Final residual = 4.23598e-07, No Iterations 4
GAMG:  Solving for p_rgh, Initial residual = 0.0029733, Final residual = 8.05301e-05, No Iterations 1
time step continuity errors : sum local = 0.000142617, global = 1.7681e-07
GAMGPCG:  Solving for p_rgh, Initial residual = 0.000283693, Final residual = 9.6219e-08, No Iterations 5
time step continuity errors : sum local = 1.68871e-07, global = -4.4828e-08, cumulative = 4.37455e-07
smoothSolver:  Solving for epsilon, Initial residual = 0.0101906, Final residual = 6.55439e-07, No Iterations 4
smoothSolver:  Solving for k, Initial residual = 0.0198632, Final residual = 6.74538e-07, No Iterations 5
ExecutionTime = 0.540635 s  ClockTime = 1 s

Courant Number mean: 0.0839689 max: 0.465841
Interface Courant Number mean: 0.00635211 max: 0.287741
deltaT = 0.00206349
Time = 0.0855556s

MULES: Solving for alpha.water
water volume fraction, min, max = 0.0858001 -1.04873e-10 1
MULES: Solving for alpha.oil
oil volume fraction, min, max = 0.119344 -3.90812e-08 1
MULES: Solving for alpha.mercury
mercury volume fraction, min, max = 0.0443935 -2.20301e-11 1
MULES: Solving for alpha.air
air volume fraction, min, max = 0.750462 -2.03844e-10 1
Phase-sum volume fraction, min, max = 1 0.999995 1
smoothSolver:  Solving for Ux, Initial residual = 0.00903517, Final residual = 6.22107e-07, No Iterations 4
smoothSolver:  Solving for Uy, Initial residual = 0.00837829, Final residual = 4.12408e-07, No Iterations 4
GAMG:  Solving for p_rgh, Initial residual = 0.00322695, Final residual = 8.33889e-05, No Iterations 1
time step continuity errors : sum local = 0.000147481, global = 1.85455e-08
GAMGPCG:  Solving for p_rgh, Initial residual = 0.000305157, Final residual = 7.53602e-08, No Iterations 5
time step continuity errors : sum local = 1.32227e-07, global = -1.02911e-08, cumulative = 4.27164e-07
smoothSolver:  Solving for epsilon, Initial residual = 0.0105221, Final residual = 6.61844e-07, No Iterations 4
smoothSolver:  Solving for k, Initial residual = 0.0194907, Final residual = 6.52358e-07, No Iterations 5
ExecutionTime = 0.550228 s  ClockTime = 1 s

Courant Number mean: 0.0855955 max: 0.470597
Interface Courant Number mean: 0.00641654 max: 0.294011
deltaT = 0.00206349
Time = 0.087619s

MULES: Solving for alpha.water
water volume fraction, min, max = 0.0858001 -3.27329e-08 1
MULES: Solving for alpha.oil
oil volume fraction, min, max = 0.119344 -1.09199e-05 1
MULES: Solving for alpha.mercury
mercury volume fraction, min, max = 0.0443935 -1.97399e-11 1
MULES: Solving for alpha.air
air volume fraction, min, max = 0.750462 -4.80292e-10 1
Phase-sum volume fraction, min, max = 1 0.999996 1
smoothSolver:  Solving for Ux, Initial residual = 0.00858177, Final residual = 6.14671e-07, No Iterations 4
smoothSolver:  Solving for Uy, Initial residual = 0.00804371, Final residual = 4.02304e-07, No Iterations 4
GAMG:  Solving for p_rgh, Initial residual = 0.00344496, Final residual = 8.55359e-05, No Iterations 1
time step continuity errors : sum local = 0.000151151, global = 2.7947e-07
GAMGPCG:  Solving for p_rgh, Initial residual = 0.000324961, Final residual = 9.48472e-08, No Iterations 5
time step continuity errors : sum local = 1.66437e-07, global = 1.32524e-08, cumulative = 4.40416e-07
smoothSolver:  Solving for epsilon, Initial residual = 0.0107756, Final residual = 6.56999e-07, No Iterations 4
smoothSolver:  Solving for k, Initial residual = 0.01898, Final residual = 6.22781e-07, No Iterations 5
ExecutionTime = 0.561134 s  ClockTime = 1 s

Courant Number mean: 0.0871936 max: 0.475199
Interface Courant Number mean: 0.00670106 max: 0.300101
deltaT = 0.00206349
Time = 0.0896825s

MULES: Solving for alpha.water
water volume fraction, min, max = 0.0858001 -3.01811e-08 1
MULES: Solving for alpha.oil
oil volume fraction, min, max = 0.119344 -1.14419e-10 1
MULES: Solving for alpha.mercury
mercury volume fraction, min, max = 0.0443935 -1.76548e-11 1
MULES: Solving for alpha.air
air volume fraction, min, max = 0.750462 -1.59166e-10 1
Phase-sum volume fraction, min, max = 1 0.999996 1
smoothSolver:  Solving for Ux, Initial residual = 0.00817902, Final residual = 5.93887e-07, No Iterations 4
smoothSolver:  Solving for Uy, Initial residual = 0.00776784, Final residual = 3.91068e-07, No Iterations 4
GAMG:  Solving for p_rgh, Initial residual = 0.00347396, Final residual = 8.02594e-05, No Iterations 1
time step continuity errors : sum local = 0.000141623, global = 2.60378e-07
GAMGPCG:  Solving for p_rgh, Initial residual = 0.000318051, Final residual = 5.16472e-08, No Iterations 5
time step continuity errors : sum local = 9.05699e-08, global = 1.33873e-08, cumulative = 4.53804e-07
smoothSolver:  Solving for epsilon, Initial residual = 0.0109875, Final residual = 6.51214e-07, No Iterations 4
smoothSolver:  Solving for k, Initial residual = 0.0185218, Final residual = 5.99031e-07, No Iterations 5
ExecutionTime = 0.570407 s  ClockTime = 1 s

Courant Number mean: 0.0887472 max: 0.479664
Interface Courant Number mean: 0.00705864 max: 0.305915
deltaT = 0.00206349
Time = 0.091746s

MULES: Solving for alpha.water
water volume fraction, min, max = 0.0858001 -2.77879e-08 1
MULES: Solving for alpha.oil
oil volume fraction, min, max = 0.119344 -4.87581e-11 1
MULES: Solving for alpha.mercury
mercury volume fraction, min, max = 0.0443935 -1.57615e-11 1
MULES: Solving for alpha.air
air volume fraction, min, max = 0.750462 -2.52126e-10 1
Phase-sum volume fraction, min, max = 1 0.999998 1
smoothSolver:  Solving for Ux, Initial residual = 0.00779486, Final residual = 5.81534e-07, No Iterations 4
smoothSolver:  Solving for Uy, Initial residual = 0.00755149, Final residual = 3.78302e-07, No Iterations 4
GAMG:  Solving for p_rgh, Initial residual = 0.00362323, Final residual = 7.92001e-05, No Iterations 1
time step continuity errors : sum local = 0.000139552, global = 1.60896e-07
GAMGPCG:  Solving for p_rgh, Initial residual = 0.000324538, Final residual = 8.15051e-08, No Iterations 5
time step continuity errors : sum local = 1.42833e-07, global = -1.09168e-08, cumulative = 4.42887e-07
smoothSolver:  Solving for epsilon, Initial residual = 0.0111306, Final residual = 6.40311e-07, No Iterations 4
smoothSolver:  Solving for k, Initial residual = 0.0180723, Final residual = 5.7405e-07, No Iterations 5
ExecutionTime = 0.579346 s  ClockTime = 1 s

Courant Number mean: 0.0902543 max: 0.483989
Interface Courant Number mean: 0.00681757 max: 0.297994
deltaT = 0.00206349
Time = 0.0938095s

MULES: Solving for alpha.water
water volume fraction, min, max = 0.0858001 -2.55471e-08 1
MULES: Solving for alpha.oil
oil volume fraction, min, max = 0.119344 -3.30682e-07 1
MULES: Solving for alpha.mercury
mercury volume fraction, min, max = 0.0443935 -1.40469e-11 1
MULES: Solving for alpha.air
air volume fraction, min, max = 0.750462 -8.30782e-11 1
Phase-sum volume fraction, min, max = 1 0.999997 1
smoothSolver:  Solving for Ux, Initial residual = 0.00744819, Final residual = 5.66437e-07, No Iterations 4
smoothSolver:  Solving for Uy, Initial residual = 0.00740404, Final residual = 3.65054e-07, No Iterations 4
GAMG:  Solving for p_rgh, Initial residual = 0.00368342, Final residual = 7.15907e-05, No Iterations 1
time step continuity errors : sum local = 0.000125869, global = -1.22512e-07
GAMGPCG:  Solving for p_rgh, Initial residual = 0.000316793, Final residual = 8.43913e-08, No Iterations 5
time step continuity errors : sum local = 1.47701e-07, global = -2.06028e-08, cumulative = 4.22284e-07
smoothSolver:  Solving for epsilon, Initial residual = 0.0112772, Final residual = 6.1528e-07, No Iterations 4
smoothSolver:  Solving for k, Initial residual = 0.0176588, Final residual = 5.40847e-07, No Iterations 5
ExecutionTime = 0.5885 s  ClockTime = 1 s

Courant Number mean: 0.0917284 max: 0.488161
Interface Courant Number mean: 0.00692673 max: 0.30504
deltaT = 0.00206349
Time = 0.095873s

MULES: Solving for alpha.water
water volume fraction, min, max = 0.0858001 -2.34534e-08 1
MULES: Solving for alpha.oil
oil volume fraction, min, max = 0.119344 -2.76282e-09 1
MULES: Solving for alpha.mercury
mercury volume fraction, min, max = 0.0443935 -1.24978e-11 1
MULES: Solving for alpha.air
air volume fraction, min, max = 0.750462 -3.2373e-11 1
Phase-sum volume fraction, min, max = 1 0.999997 1
smoothSolver:  Solving for Ux, Initial residual = 0.00711195, Final residual = 5.51128e-07, No Iterations 4
smoothSolver:  Solving for Uy, Initial residual = 0.00727018, Final residual = 3.54952e-07, No Iterations 4
GAMG:  Solving for p_rgh, Initial residual = 0.00384006, Final residual = 7.52702e-05, No Iterations 1
time step continuity errors : sum local = 0.000131978, global = -7.37307e-08
GAMGPCG:  Solving for p_rgh, Initial residual = 0.000341537, Final residual = 6.023e-08, No Iterations 5
time step continuity errors : sum local = 1.05243e-07, global = -1.81688e-08, cumulative = 4.04115e-07
smoothSolver:  Solving for epsilon, Initial residual = 0.011495, Final residual = 5.96791e-07, No Iterations 4
smoothSolver:  Solving for k, Initial residual = 0.0173543, Final residual = 5.15594e-07, No Iterations 5
ExecutionTime = 0.597285 s  ClockTime = 1 s

Courant Number mean: 0.0932219 max: 0.492173
Interface Courant Number mean: 0.00777658 max: 0.319118
deltaT = 0.00206349
Time = 0.0979365s

MULES: Solving for alpha.water
water volume fraction, min, max = 0.0858001 -2.15008e-08 1
MULES: Solving for alpha.oil
oil volume fraction, min, max = 0.119344 -2.13902e-09 1
MULES: Solving for alpha.mercury
mercury volume fraction, min, max = 0.0443935 -1.11014e-11 1
MULES: Solving for alpha.air
air volume fraction, min, max = 0.750462 -5.02113e-11 1
Phase-sum volume fraction, min, max = 1 0.999999 1
smoothSolver:  Solving for Ux, Initial residual = 0.0068308, Final residual = 5.33364e-07, No Iterations 4
smoothSolver:  Solving for Uy, Initial residual = 0.00716678, Final residual = 3.54215e-07, No Iterations 4
GAMG:  Solving for p_rgh, Initial residual = 0.00421651, Final residual = 8.90279e-05, No Iterations 1
time step continuity errors : sum local = 0.000155605, global = -1.11686e-07
GAMGPCG:  Solving for p_rgh, Initial residual = 0.000381236, Final residual = 6.5219e-08, No Iterations 5
time step continuity errors : sum local = 1.13672e-07, global = -3.60752e-09, cumulative = 4.00508e-07
smoothSolver:  Solving for epsilon, Initial residual = 0.0117767, Final residual = 5.8264e-07, No Iterations 4
smoothSolver:  Solving for k, Initial residual = 0.0171381, Final residual = 4.96033e-07, No Iterations 5
ExecutionTime = 0.607191 s  ClockTime = 1 s

Courant Number mean: 0.0947262 max: 0.496041
Interface Courant Number mean: 0.00752806 max: 0.322235
deltaT = 0.00206349
Time = 0.1s

MULES: Solving for alpha.water
water volume fraction, min, max = 0.0858001 -1.96852e-08 1
MULES: Solving for alpha.oil
oil volume fraction, min, max = 0.119344 -1.61673e-09 1
MULES: Solving for alpha.mercury
mercury volume fraction, min, max = 0.0443935 -9.8456e-12 1
MULES: Solving for alpha.air
air volume fraction, min, max = 0.750462 -6.61525e-11 1
Phase-sum volume fraction, min, max = 1 0.999998 1
smoothSolver:  Solving for Ux, Initial residual = 0.00658661, Final residual = 5.15273e-07, No Iterations 4
smoothSolver:  Solving for Uy, Initial residual = 0.00708355, Final residual = 3.47904e-07, No Iterations 4
GAMG:  Solving for p_rgh, Initial residual = 0.0046317, Final residual = 0.000108927, No Iterations 1
time step continuity errors : sum local = 0.000189805, global = -4.12244e-08
GAMGPCG:  Solving for p_rgh, Initial residual = 0.000429168, Final residual = 5.78239e-08, No Iterations 5
time step continuity errors : sum local = 1.00541e-07, global = -4.82684e-09, cumulative = 3.95681e-07
smoothSolver:  Solving for epsilon, Initial residual = 0.0120813, Final residual = 5.73017e-07, No Iterations 4
smoothSolver:  Solving for k, Initial residual = 0.0168657, Final residual = 4.81766e-07, No Iterations 5
ExecutionTime = 0.623994 s  ClockTime = 1 s

Courant Number mean: 0.0962304 max: 0.499777
Interface Courant Number mean: 0.00747102 max: 0.327662
deltaT = 0.002
Time = 0.102s

MULES: Solving for alpha.water
water volume fraction, min, max = 0.0858001 -1.8058e-08 1
MULES: Solving for alpha.oil
oil volume fraction, min, max = 0.119344 -4.0833e-06 1
MULES: Solving for alpha.mercury
mercury volume fraction, min, max = 0.0443935 -8.75327e-12 1
MULES: Solving for alpha.air
air volume fraction, min, max = 0.750462 -1.62697e-10 1
Phase-sum volume fraction, min, max = 1 0.999997 1
smoothSolver:  Solving for Ux, Initial residual = 0.00616503, Final residual = 4.18402e-07, No Iterations 4
smoothSolver:  Solving for Uy, Initial residual = 0.00672124, Final residual = 2.92211e-07, No Iterations 4
GAMG:  Solving for p_rgh, Initial residual = 0.00447851, Final residual = 0.000121277, No Iterations 1
time step continuity errors : sum local = 0.000199801, global = -1.49656e-07
GAMGPCG:  Solving for p_rgh, Initial residual = 0.000432484, Final residual = 6.82194e-08, No Iterations 5
time step continuity errors : sum local = 1.12281e-07, global = -2.71647e-09, cumulative = 3.92964e-07
smoothSolver:  Solving for epsilon, Initial residual = 0.0120252, Final residual = 4.73812e-07, No Iterations 4
smoothSolver:  Solving for k, Initial residual = 0.0160788, Final residual = 3.87302e-07, No Iterations 5
ExecutionTime = 0.636221 s  ClockTime = 1 s

Courant Number mean: 0.094637 max: 0.48782
Interface Courant Number mean: 0.00734167 max: 0.323293
deltaT = 0.002
Time = 0.104s

MULES: Solving for alpha.water
water volume fraction, min, max = 0.0858001 -1.65468e-08 1
MULES: Solving for alpha.oil
oil volume fraction, min, max = 0.119344 -8.53946e-10 1
MULES: Solving for alpha.mercury
mercury volume fraction, min, max = 0.0443935 -7.77146e-12 1
MULES: Solving for alpha.air
air volume fraction, min, max = 0.750462 -2.53491e-10 1
Phase-sum volume fraction, min, max = 1 0.999997 1
smoothSolver:  Solving for Ux, Initial residual = 0.00595197, Final residual = 4.11633e-07, No Iterations 4
smoothSolver:  Solving for Uy, Initial residual = 0.00663053, Final residual = 2.8667e-07, No Iterations 4
GAMG:  Solving for p_rgh, Initial residual = 0.00435319, Final residual = 0.000124139, No Iterations 1
time step continuity errors : sum local = 0.000203865, global = -8.28263e-08
GAMGPCG:  Solving for p_rgh, Initial residual = 0.000419225, Final residual = 4.48966e-08, No Iterations 5
time step continuity errors : sum local = 7.37192e-08, global = 5.23987e-09, cumulative = 3.98204e-07
smoothSolver:  Solving for epsilon, Initial residual = 0.0123527, Final residual = 4.63102e-07, No Iterations 4
smoothSolver:  Solving for k, Initial residual = 0.0158811, Final residual = 3.76844e-07, No Iterations 5
ExecutionTime = 0.646757 s  ClockTime = 1 s

Courant Number mean: 0.0959728 max: 0.491082
Interface Courant Number mean: 0.00754813 max: 0.329319
deltaT = 0.002
Time = 0.106s

MULES: Solving for alpha.water
water volume fraction, min, max = 0.0858001 -1.51439e-08 1
MULES: Solving for alpha.oil
oil volume fraction, min, max = 0.119344 -2.53498e-08 1
MULES: Solving for alpha.mercury
mercury volume fraction, min, max = 0.0443935 -7.16859e-12 1
MULES: Solving for alpha.air
air volume fraction, min, max = 0.750462 -2.82122e-10 1
Phase-sum volume fraction, min, max = 1 0.999998 1
smoothSolver:  Solving for Ux, Initial residual = 0.00574833, Final residual = 4.01495e-07, No Iterations 4
smoothSolver:  Solving for Uy, Initial residual = 0.00662096, Final residual = 2.85474e-07, No Iterations 4
GAMG:  Solving for p_rgh, Initial residual = 0.00431793, Final residual = 0.000140027, No Iterations 1
time step continuity errors : sum local = 0.000229201, global = 5.56321e-08
GAMGPCG:  Solving for p_rgh, Initial residual = 0.000425191, Final residual = 5.58894e-08, No Iterations 5
time step continuity errors : sum local = 9.15682e-08, global = -1.10228e-09, cumulative = 3.97102e-07
smoothSolver:  Solving for epsilon, Initial residual = 0.0126833, Final residual = 4.47204e-07, No Iterations 4
smoothSolver:  Solving for k, Initial residual = 0.015746, Final residual = 3.64176e-07, No Iterations 5
ExecutionTime = 0.656496 s  ClockTime = 1 s

Courant Number mean: 0.0972942 max: 0.494227
Interface Courant Number mean: 0.0074034 max: 0.341671
deltaT = 0.002
Time = 0.108s

MULES: Solving for alpha.water
water volume fraction, min, max = 0.0858001 -1.38508e-08 1
MULES: Solving for alpha.oil
oil volume fraction, min, max = 0.119344 -3.53578e-10 1
MULES: Solving for alpha.mercury
mercury volume fraction, min, max = 0.0443935 -6.10195e-12 1
MULES: Solving for alpha.air
air volume fraction, min, max = 0.750462 -3.32686e-10 1
Phase-sum volume fraction, min, max = 1 0.999998 1
smoothSolver:  Solving for Ux, Initial residual = 0.00557616, Final residual = 3.98194e-07, No Iterations 4
smoothSolver:  Solving for Uy, Initial residual = 0.00661123, Final residual = 2.82721e-07, No Iterations 4
GAMG:  Solving for p_rgh, Initial residual = 0.00418749, Final residual = 0.000158707, No Iterations 1
time step continuity errors : sum local = 0.00026158, global = -2.14559e-08
GAMGPCG:  Solving for p_rgh, Initial residual = 0.000404432, Final residual = 7.01297e-08, No Iterations 5
time step continuity errors : sum local = 1.15807e-07, global = 3.13224e-09, cumulative = 4.00234e-07
smoothSolver:  Solving for epsilon, Initial residual = 0.0129692, Final residual = 4.19887e-07, No Iterations 4
smoothSolver:  Solving for k, Initial residual = 0.015504, Final residual = 3.43624e-07, No Iterations 5
ExecutionTime = 0.665517 s  ClockTime = 1 s

Courant Number mean: 0.0985961 max: 0.497243
Interface Courant Number mean: 0.00728159 max: 0.344869
deltaT = 0.002
Time = 0.11s

MULES: Solving for alpha.water
water volume fraction, min, max = 0.0858001 -1.26699e-08 1
MULES: Solving for alpha.oil
oil volume fraction, min, max = 0.119344 -1.78815e-07 1
MULES: Solving for alpha.mercury
mercury volume fraction, min, max = 0.0443935 -5.39694e-12 1
MULES: Solving for alpha.air
air volume fraction, min, max = 0.750462 -6.20752e-10 1
Phase-sum volume fraction, min, max = 1 0.999995 1
smoothSolver:  Solving for Ux, Initial residual = 0.00534556, Final residual = 3.86167e-07, No Iterations 4
smoothSolver:  Solving for Uy, Initial residual = 0.00662666, Final residual = 2.76485e-07, No Iterations 4
GAMG:  Solving for p_rgh, Initial residual = 0.00311912, Final residual = 3.10627e-05, No Iterations 2
time step continuity errors : sum local = 5.14098e-05, global = 3.01746e-07
GAMGPCG:  Solving for p_rgh, Initial residual = 0.000271078, Final residual = 5.31038e-08, No Iterations 5
time step continuity errors : sum local = 8.77652e-08, global = -2.40706e-08, cumulative = 3.76164e-07
smoothSolver:  Solving for epsilon, Initial residual = 0.0131358, Final residual = 3.97783e-07, No Iterations 4
smoothSolver:  Solving for k, Initial residual = 0.0152944, Final residual = 3.29744e-07, No Iterations 5
ExecutionTime = 0.674634 s  ClockTime = 1 s

Courant Number mean: 0.0998779 max: 0.500126
Interface Courant Number mean: 0.00756993 max: 0.349224
deltaT = 0.002
Time = 0.112s

MULES: Solving for alpha.water
water volume fraction, min, max = 0.0858001 -3.86141e-08 1
MULES: Solving for alpha.oil
oil volume fraction, min, max = 0.119344 -1.60027e-07 1
MULES: Solving for alpha.mercury
mercury volume fraction, min, max = 0.0443935 -1.90487e-10 1
MULES: Solving for alpha.air
air volume fraction, min, max = 0.750462 -1.36687e-08 1
Phase-sum volume fraction, min, max = 1 0.999998 1
smoothSolver:  Solving for Ux, Initial residual = 0.00520113, Final residual = 3.91964e-07, No Iterations 4
smoothSolver:  Solving for Uy, Initial residual = 0.00658813, Final residual = 2.73366e-07, No Iterations 4
GAMG:  Solving for p_rgh, Initial residual = 0.00332262, Final residual = 3.64494e-05, No Iterations 2
time step continuity errors : sum local = 6.02114e-05, global = 5.43719e-07
GAMGPCG:  Solving for p_rgh, Initial residual = 0.000279185, Final residual = 4.85333e-08, No Iterations 5
time step continuity errors : sum local = 7.9964e-08, global = -2.11922e-08, cumulative = 3.54971e-07
smoothSolver:  Solving for epsilon, Initial residual = 0.013237, Final residual = 3.77209e-07, No Iterations 4
smoothSolver:  Solving for k, Initial residual = 0.0151067, Final residual = 3.16976e-07, No Iterations 5
ExecutionTime = 0.683601 s  ClockTime = 1 s

Courant Number mean: 0.101165 max: 0.502891
Interface Courant Number mean: 0.00735044 max: 0.354412
deltaT = 0.0019
Time = 0.1139s

MULES: Solving for alpha.water
water volume fraction, min, max = 0.0858001 -1.06724e-08 1
MULES: Solving for alpha.oil
oil volume fraction, min, max = 0.119344 -4.04543e-06 1
MULES: Solving for alpha.mercury
mercury volume fraction, min, max = 0.0443935 -4.23569e-12 1
MULES: Solving for alpha.air
air volume fraction, min, max = 0.750462 -2.41562e-08 1
Phase-sum volume fraction, min, max = 1 0.999999 1
smoothSolver:  Solving for Ux, Initial residual = 0.00479155, Final residual = 2.88076e-07, No Iterations 4
smoothSolver:  Solving for Uy, Initial residual = 0.0061576, Final residual = 2.03974e-07, No Iterations 4
GAMG:  Solving for p_rgh, Initial residual = 0.00337323, Final residual = 3.73312e-05, No Iterations 2
time step continuity errors : sum local = 5.63907e-05, global = 5.03234e-07
GAMGPCG:  Solving for p_rgh, Initial residual = 0.000276298, Final residual = 3.56419e-08, No Iterations 5
time step continuity errors : sum local = 5.36902e-08, global = -1.22722e-08, cumulative = 3.42699e-07
smoothSolver:  Solving for epsilon, Initial residual = 0.0127507, Final residual = 2.69494e-07, No Iterations 4
smoothSolver:  Solving for k, Initial residual = 0.0141761, Final residual = 2.23061e-07, No Iterations 5
ExecutionTime = 0.692955 s  ClockTime = 1 s

Courant Number mean: 0.0972445 max: 0.48021
Interface Courant Number mean: 0.00711979 max: 0.341742
deltaT = 0.0019
Time = 0.1158s

MULES: Solving for alpha.water
water volume fraction, min, max = 0.0858001 -8.90089e-09 1
MULES: Solving for alpha.oil
oil volume fraction, min, max = 0.119344 -9.69947e-07 1
MULES: Solving for alpha.mercury
mercury volume fraction, min, max = 0.0443935 -3.7594e-12 1
MULES: Solving for alpha.air
air volume fraction, min, max = 0.750462 -7.91859e-12 1
Phase-sum volume fraction, min, max = 1 0.999999 1
smoothSolver:  Solving for Ux, Initial residual = 0.00467582, Final residual = 2.89416e-07, No Iterations 4
smoothSolver:  Solving for Uy, Initial residual = 0.00613201, Final residual = 2.00928e-07, No Iterations 4
GAMG:  Solving for p_rgh, Initial residual = 0.00345808, Final residual = 3.91023e-05, No Iterations 2
time step continuity errors : sum local = 5.89027e-05, global = 5.25468e-07
GAMGPCG:  Solving for p_rgh, Initial residual = 0.000287141, Final residual = 3.31945e-08, No Iterations 5
time step continuity errors : sum local = 4.97991e-08, global = -1.32989e-08, cumulative = 3.294e-07
smoothSolver:  Solving for epsilon, Initial residual = 0.0130998, Final residual = 2.61054e-07, No Iterations 4
smoothSolver:  Solving for k, Initial residual = 0.0140715, Final residual = 2.19431e-07, No Iterations 5
ExecutionTime = 0.702194 s  ClockTime = 1 s

Courant Number mean: 0.0983894 max: 0.482522
Interface Courant Number mean: 0.0077963 max: 0.349572
deltaT = 0.0019
Time = 0.1177s

MULES: Solving for alpha.water
water volume fraction, min, max = 0.0858001 -2.55718e-09 1
MULES: Solving for alpha.oil
oil volume fraction, min, max = 0.119344 -1.20052e-07 1
MULES: Solving for alpha.mercury
mercury volume fraction, min, max = 0.0443935 -3.33374e-12 1
MULES: Solving for alpha.air
air volume fraction, min, max = 0.750462 -9.24728e-12 1
Phase-sum volume fraction, min, max = 1 0.999999 1
smoothSolver:  Solving for Ux, Initial residual = 0.00456531, Final residual = 2.87374e-07, No Iterations 4
smoothSolver:  Solving for Uy, Initial residual = 0.00613253, Final residual = 1.97486e-07, No Iterations 4
GAMG:  Solving for p_rgh, Initial residual = 0.00373696, Final residual = 4.26574e-05, No Iterations 2
time step continuity errors : sum local = 6.40241e-05, global = 5.43322e-07
GAMGPCG:  Solving for p_rgh, Initial residual = 0.000311491, Final residual = 3.40605e-08, No Iterations 5
time step continuity errors : sum local = 5.08697e-08, global = -7.8092e-09, cumulative = 3.21591e-07
smoothSolver:  Solving for epsilon, Initial residual = 0.0136132, Final residual = 2.55241e-07, No Iterations 4
smoothSolver:  Solving for k, Initial residual = 0.0140758, Final residual = 2.17652e-07, No Iterations 5
ExecutionTime = 0.711382 s  ClockTime = 1 s

Courant Number mean: 0.0995635 max: 0.484738
Interface Courant Number mean: 0.00819568 max: 0.353009
deltaT = 0.0019
Time = 0.1196s

MULES: Solving for alpha.water
water volume fraction, min, max = 0.0858001 -6.50576e-10 1
MULES: Solving for alpha.oil
oil volume fraction, min, max = 0.119344 -1.08797e-07 1
MULES: Solving for alpha.mercury
mercury volume fraction, min, max = 0.0443935 -5.31596e-09 1
MULES: Solving for alpha.air
air volume fraction, min, max = 0.750462 -4.07891e-11 1
Phase-sum volume fraction, min, max = 1 0.999999 1
smoothSolver:  Solving for Ux, Initial residual = 0.00446669, Final residual = 2.84089e-07, No Iterations 4
smoothSolver:  Solving for Uy, Initial residual = 0.00616142, Final residual = 1.94117e-07, No Iterations 4
GAMG:  Solving for p_rgh, Initial residual = 0.00387893, Final residual = 4.4224e-05, No Iterations 2
time step continuity errors : sum local = 6.61282e-05, global = 5.43238e-07
GAMGPCG:  Solving for p_rgh, Initial residual = 0.000327229, Final residual = 4.33553e-08, No Iterations 5
time step continuity errors : sum local = 6.44373e-08, global = -4.46781e-10, cumulative = 3.21144e-07
smoothSolver:  Solving for epsilon, Initial residual = 0.013993, Final residual = 2.50257e-07, No Iterations 4
smoothSolver:  Solving for k, Initial residual = 0.0140462, Final residual = 2.16685e-07, No Iterations 5
ExecutionTime = 0.721226 s  ClockTime = 1 s

Courant Number mean: 0.100761 max: 0.486855
Interface Courant Number mean: 0.00845444 max: 0.357147
deltaT = 0.0019
Time = 0.1215s

MULES: Solving for alpha.water
water volume fraction, min, max = 0.0858001 -1.75019e-10 1
MULES: Solving for alpha.oil
oil volume fraction, min, max = 0.119344 -9.84741e-08 1
MULES: Solving for alpha.mercury
mercury volume fraction, min, max = 0.0443935 -1.68171e-12 1
MULES: Solving for alpha.air
air volume fraction, min, max = 0.750462 -1.30292e-12 1
Phase-sum volume fraction, min, max = 1 0.999999 1
smoothSolver:  Solving for Ux, Initial residual = 0.00436731, Final residual = 2.82851e-07, No Iterations 4
smoothSolver:  Solving for Uy, Initial residual = 0.0061945, Final residual = 1.91297e-07, No Iterations 4
GAMG:  Solving for p_rgh, Initial residual = 0.00421601, Final residual = 4.9587e-05, No Iterations 2
time step continuity errors : sum local = 7.38396e-05, global = 7.04006e-07
GAMGPCG:  Solving for p_rgh, Initial residual = 0.000372049, Final residual = 3.65698e-08, No Iterations 5
time step continuity errors : sum local = 5.4069e-08, global = -2.96546e-09, cumulative = 3.18179e-07
smoothSolver:  Solving for epsilon, Initial residual = 0.0142009, Final residual = 2.44471e-07, No Iterations 4
smoothSolver:  Solving for k, Initial residual = 0.0139184, Final residual = 2.15089e-07, No Iterations 5
ExecutionTime = 0.730294 s  ClockTime = 1 s

Courant Number mean: 0.101922 max: 0.48887
Interface Courant Number mean: 0.00859814 max: 0.362139
deltaT = 0.0019
Time = 0.1234s

MULES: Solving for alpha.water
water volume fraction, min, max = 0.0858001 -6.53519e-11 1
MULES: Solving for alpha.oil
oil volume fraction, min, max = 0.119344 -8.90272e-08 1
MULES: Solving for alpha.mercury
mercury volume fraction, min, max = 0.0443935 -1.24256e-12 1
MULES: Solving for alpha.air
air volume fraction, min, max = 0.750462 -8.85192e-14 1
Phase-sum volume fraction, min, max = 1 0.999999 1
smoothSolver:  Solving for Ux, Initial residual = 0.0043148, Final residual = 2.80382e-07, No Iterations 4
smoothSolver:  Solving for Uy, Initial residual = 0.00623052, Final residual = 1.89718e-07, No Iterations 4
GAMG:  Solving for p_rgh, Initial residual = 0.00460541, Final residual = 5.60037e-05, No Iterations 2
time step continuity errors : sum local = 8.30327e-05, global = 7.15503e-07
GAMGPCG:  Solving for p_rgh, Initial residual = 0.00043092, Final residual = 3.65879e-08, No Iterations 5
time step continuity errors : sum local = 5.37882e-08, global = -1.33371e-08, cumulative = 3.04842e-07
smoothSolver:  Solving for epsilon, Initial residual = 0.0141987, Final residual = 2.36829e-07, No Iterations 4
smoothSolver:  Solving for k, Initial residual = 0.0137314, Final residual = 2.12408e-07, No Iterations 5
ExecutionTime = 0.740371 s  ClockTime = 1 s

Courant Number mean: 0.103048 max: 0.490742
Interface Courant Number mean: 0.0086625 max: 0.367206
deltaT = 0.0019
Time = 0.1253s

MULES: Solving for alpha.water
water volume fraction, min, max = 0.0858001 -3.22405e-09 1
MULES: Solving for alpha.oil
oil volume fraction, min, max = 0.119344 -8.04064e-08 1
MULES: Solving for alpha.mercury
mercury volume fraction, min, max = 0.0443935 -1.08929e-12 1
MULES: Solving for alpha.air
air volume fraction, min, max = 0.750462 -4.14414e-10 1
Phase-sum volume fraction, min, max = 1 0.999999 1
smoothSolver:  Solving for Ux, Initial residual = 0.00426597, Final residual = 2.78659e-07, No Iterations 4
smoothSolver:  Solving for Uy, Initial residual = 0.0062633, Final residual = 1.89447e-07, No Iterations 4
GAMG:  Solving for p_rgh, Initial residual = 0.00450226, Final residual = 5.45726e-05, No Iterations 2
time step continuity errors : sum local = 8.05569e-05, global = 8.06991e-07
GAMGPCG:  Solving for p_rgh, Initial residual = 0.000447094, Final residual = 5.67001e-08, No Iterations 5
time step continuity errors : sum local = 8.28317e-08, global = -9.03493e-09, cumulative = 2.95807e-07
smoothSolver:  Solving for epsilon, Initial residual = 0.0143027, Final residual = 2.2687e-07, No Iterations 4
smoothSolver:  Solving for k, Initial residual = 0.0136169, Final residual = 2.0849e-07, No Iterations 5
ExecutionTime = 0.751152 s  ClockTime = 1 s

Courant Number mean: 0.104114 max: 0.492557
Interface Courant Number mean: 0.00834676 max: 0.372223
deltaT = 0.0019
Time = 0.1272s

MULES: Solving for alpha.water
water volume fraction, min, max = 0.0858001 -2.84161e-09 1
MULES: Solving for alpha.oil
oil volume fraction, min, max = 0.119344 -7.25609e-08 1
MULES: Solving for alpha.mercury
mercury volume fraction, min, max = 0.0443935 -9.5407e-13 1
MULES: Solving for alpha.air
air volume fraction, min, max = 0.750462 -9.18935e-14 1
Phase-sum volume fraction, min, max = 1 0.999997 1
smoothSolver:  Solving for Ux, Initial residual = 0.00420055, Final residual = 2.77227e-07, No Iterations 4
smoothSolver:  Solving for Uy, Initial residual = 0.00624146, Final residual = 1.87596e-07, No Iterations 4
GAMG:  Solving for p_rgh, Initial residual = 0.00441401, Final residual = 5.14976e-05, No Iterations 2
time step continuity errors : sum local = 7.57206e-05, global = 8.01672e-07
GAMGPCG:  Solving for p_rgh, Initial residual = 0.000452219, Final residual = 1.64565e-08, No Iterations 6
time step continuity errors : sum local = 2.39028e-08, global = -5.28579e-09, cumulative = 2.90521e-07
smoothSolver:  Solving for epsilon, Initial residual = 0.0146915, Final residual = 2.17796e-07, No Iterations 4
smoothSolver:  Solving for k, Initial residual = 0.0135525, Final residual = 2.0608e-07, No Iterations 5
ExecutionTime = 0.761244 s  ClockTime = 1 s

Courant Number mean: 0.105112 max: 0.494257
Interface Courant Number mean: 0.00837475 max: 0.377279
deltaT = 0.0019
Time = 0.1291s

MULES: Solving for alpha.water
water volume fraction, min, max = 0.0858001 -1.70563e-08 1
MULES: Solving for alpha.oil
oil volume fraction, min, max = 0.119344 -6.54487e-08 1
MULES: Solving for alpha.mercury
mercury volume fraction, min, max = 0.0443935 -2.55457e-09 1
MULES: Solving for alpha.air
air volume fraction, min, max = 0.750462 -9.68399e-10 1
Phase-sum volume fraction, min, max = 1 0.999999 1
smoothSolver:  Solving for Ux, Initial residual = 0.00412455, Final residual = 2.69707e-07, No Iterations 4
smoothSolver:  Solving for Uy, Initial residual = 0.00624055, Final residual = 1.93051e-07, No Iterations 4
GAMG:  Solving for p_rgh, Initial residual = 0.00424767, Final residual = 4.78869e-05, No Iterations 2
time step continuity errors : sum local = 7.01018e-05, global = 6.93521e-07
GAMGPCG:  Solving for p_rgh, Initial residual = 0.000409821, Final residual = 1.82141e-08, No Iterations 6
time step continuity errors : sum local = 2.63304e-08, global = -7.98256e-09, cumulative = 2.82539e-07
smoothSolver:  Solving for epsilon, Initial residual = 0.0152804, Final residual = 2.07904e-07, No Iterations 4
smoothSolver:  Solving for k, Initial residual = 0.0135081, Final residual = 2.03111e-07, No Iterations 5
ExecutionTime = 0.771475 s  ClockTime = 1 s

Courant Number mean: 0.106201 max: 0.49589
Interface Courant Number mean: 0.00863839 max: 0.382317
deltaT = 0.0019
Time = 0.131s

MULES: Solving for alpha.water
water volume fraction, min, max = 0.0858001 -1.50097e-08 1
MULES: Solving for alpha.oil
oil volume fraction, min, max = 0.119344 -5.90335e-08 1
MULES: Solving for alpha.mercury
mercury volume fraction, min, max = 0.0443935 -7.30082e-13 1
MULES: Solving for alpha.air
air volume fraction, min, max = 0.750462 -6.40555e-10 1
Phase-sum volume fraction, min, max = 1 0.999999 1
smoothSolver:  Solving for Ux, Initial residual = 0.00406419, Final residual = 2.61475e-07, No Iterations 4
smoothSolver:  Solving for Uy, Initial residual = 0.00627741, Final residual = 1.98091e-07, No Iterations 4
GAMG:  Solving for p_rgh, Initial residual = 0.00393212, Final residual = 4.55361e-05, No Iterations 2
time step continuity errors : sum local = 6.64143e-05, global = 7.68184e-07
GAMGPCG:  Solving for p_rgh, Initial residual = 0.000382831, Final residual = 4.41151e-08, No Iterations 6
time step continuity errors : sum local = 6.35135e-08, global = -1.29477e-08, cumulative = 2.69591e-07
[...]
time step continuity errors : sum local = 4.31955e-07, global = 6.32209e-08, cumulative = 6.18677e-09
smoothSolver:  Solving for epsilon, Initial residual = 0.0114773, Final residual = 7.11261e-07, No Iterations 7
smoothSolver:  Solving for k, Initial residual = 0.00986578, Final residual = 4.92272e-07, No Iterations 9
ExecutionTime = 7.92925 s  ClockTime = 8 s

Courant Number mean: 0.0256001 max: 0.140622
Interface Courant Number mean: 0.00548136 max: 0.140622
deltaT = 0.01
Time = 2.87s

MULES: Solving for alpha.water
water volume fraction, min, max = 0.0858001 -8.05107e-10 1
MULES: Solving for alpha.oil
oil volume fraction, min, max = 0.119344 -3.19724e-07 1
MULES: Solving for alpha.mercury
mercury volume fraction, min, max = 0.0443935 -4.7382e-07 1
MULES: Solving for alpha.air
air volume fraction, min, max = 0.750462 -2.78732e-07 1
Phase-sum volume fraction, min, max = 1 0.999996 1
smoothSolver:  Solving for Ux, Initial residual = 0.0186541, Final residual = 9.13245e-07, No Iterations 6
smoothSolver:  Solving for Uy, Initial residual = 0.123138, Final residual = 4.16205e-07, No Iterations 8
GAMG:  Solving for p_rgh, Initial residual = 0.000602941, Final residual = 2.13907e-05, No Iterations 3
time step continuity errors : sum local = 0.00027759, global = -0.000211077
GAMGPCG:  Solving for p_rgh, Initial residual = 0.000133455, Final residual = 1.78386e-08, No Iterations 5
time step continuity errors : sum local = 2.31709e-07, global = -4.30742e-08, cumulative = -3.68874e-08
smoothSolver:  Solving for epsilon, Initial residual = 0.0112154, Final residual = 6.51313e-07, No Iterations 7
smoothSolver:  Solving for k, Initial residual = 0.00961597, Final residual = 4.56767e-07, No Iterations 9
ExecutionTime = 7.93872 s  ClockTime = 8 s

Courant Number mean: 0.0256023 max: 0.139787
Interface Courant Number mean: 0.00553342 max: 0.139787
deltaT = 0.01
Time = 2.88s

MULES: Solving for alpha.water
water volume fraction, min, max = 0.0858001 -1.88113e-09 1
MULES: Solving for alpha.oil
oil volume fraction, min, max = 0.119344 -3.45013e-07 1
MULES: Solving for alpha.mercury
mercury volume fraction, min, max = 0.0443935 -4.41805e-07 1
MULES: Solving for alpha.air
air volume fraction, min, max = 0.750463 -2.63808e-07 1
Phase-sum volume fraction, min, max = 1 0.999997 1
smoothSolver:  Solving for Ux, Initial residual = 0.0175035, Final residual = 8.88637e-07, No Iterations 6
smoothSolver:  Solving for Uy, Initial residual = 0.121038, Final residual = 4.70809e-07, No Iterations 8
GAMG:  Solving for p_rgh, Initial residual = 0.000598079, Final residual = 2.9497e-05, No Iterations 2
time step continuity errors : sum local = 0.000379429, global = 0.00024562
GAMGPCG:  Solving for p_rgh, Initial residual = 0.000121945, Final residual = 3.41229e-08, No Iterations 5
time step continuity errors : sum local = 4.38567e-07, global = 6.13238e-08, cumulative = 2.44364e-08
smoothSolver:  Solving for epsilon, Initial residual = 0.0116305, Final residual = 6.81969e-07, No Iterations 7
smoothSolver:  Solving for k, Initial residual = 0.0100968, Final residual = 4.74112e-07, No Iterations 9
ExecutionTime = 7.94831 s  ClockTime = 8 s

Courant Number mean: 0.0257596 max: 0.13891
Interface Courant Number mean: 0.00563801 max: 0.13891
deltaT = 0.01
Time = 2.89s

MULES: Solving for alpha.water
water volume fraction, min, max = 0.0858001 -1.80826e-09 1
MULES: Solving for alpha.oil
oil volume fraction, min, max = 0.119344 -3.62629e-07 1
MULES: Solving for alpha.mercury
mercury volume fraction, min, max = 0.0443935 -4.12244e-07 1
MULES: Solving for alpha.air
air volume fraction, min, max = 0.750462 -6.02713e-07 1
Phase-sum volume fraction, min, max = 1 0.999996 1
smoothSolver:  Solving for Ux, Initial residual = 0.0172303, Final residual = 9.61579e-07, No Iterations 6
smoothSolver:  Solving for Uy, Initial residual = 0.120055, Final residual = 4.05642e-07, No Iterations 8
GAMG:  Solving for p_rgh, Initial residual = 0.000606075, Final residual = 2.22223e-05, No Iterations 3
time step continuity errors : sum local = 0.000288143, global = -0.000218684
GAMGPCG:  Solving for p_rgh, Initial residual = 0.000127942, Final residual = 2.45998e-08, No Iterations 5
time step continuity errors : sum local = 3.19204e-07, global = -7.59742e-09, cumulative = 1.68389e-08
smoothSolver:  Solving for epsilon, Initial residual = 0.0120584, Final residual = 6.199e-07, No Iterations 7
smoothSolver:  Solving for k, Initial residual = 0.0105201, Final residual = 9.89017e-07, No Iterations 8
ExecutionTime = 7.958 s  ClockTime = 8 s

Courant Number mean: 0.0257753 max: 0.138011
Interface Courant Number mean: 0.00568509 max: 0.138011
deltaT = 0.01
Time = 2.9s

MULES: Solving for alpha.water
water volume fraction, min, max = 0.0858001 -1.69568e-09 1
MULES: Solving for alpha.oil
oil volume fraction, min, max = 0.119344 -3.70661e-07 1
MULES: Solving for alpha.mercury
mercury volume fraction, min, max = 0.0443935 -3.85111e-07 1
MULES: Solving for alpha.air
air volume fraction, min, max = 0.750463 -6.42519e-07 1
Phase-sum volume fraction, min, max = 1 0.999996 1
smoothSolver:  Solving for Ux, Initial residual = 0.016782, Final residual = 9.4317e-07, No Iterations 6
smoothSolver:  Solving for Uy, Initial residual = 0.118726, Final residual = 4.70295e-07, No Iterations 8
GAMG:  Solving for p_rgh, Initial residual = 0.000617116, Final residual = 2.10195e-05, No Iterations 3
time step continuity errors : sum local = 0.000270665, global = 0.000210463
GAMGPCG:  Solving for p_rgh, Initial residual = 0.000123334, Final residual = 1.97997e-08, No Iterations 5
time step continuity errors : sum local = 2.54406e-07, global = 6.89479e-08, cumulative = 8.57868e-08
smoothSolver:  Solving for epsilon, Initial residual = 0.0113751, Final residual = 6.50023e-07, No Iterations 7
smoothSolver:  Solving for k, Initial residual = 0.00999888, Final residual = 4.5452e-07, No Iterations 9
ExecutionTime = 7.97682 s  ClockTime = 8 s

Courant Number mean: 0.0259644 max: 0.137047
Interface Courant Number mean: 0.00568799 max: 0.137047
deltaT = 0.01
Time = 2.91s

MULES: Solving for alpha.water
water volume fraction, min, max = 0.0858001 -1.59667e-09 1
MULES: Solving for alpha.oil
oil volume fraction, min, max = 0.119344 -3.69561e-07 1
MULES: Solving for alpha.mercury
mercury volume fraction, min, max = 0.0443935 -3.60211e-07 1
MULES: Solving for alpha.air
air volume fraction, min, max = 0.750462 -7.33864e-07 1
Phase-sum volume fraction, min, max = 1 0.999997 1
smoothSolver:  Solving for Ux, Initial residual = 0.016884, Final residual = 9.53419e-07, No Iterations 6
smoothSolver:  Solving for Uy, Initial residual = 0.117574, Final residual = 4.45931e-07, No Iterations 8
GAMG:  Solving for p_rgh, Initial residual = 0.000644988, Final residual = 2.94492e-05, No Iterations 2
time step continuity errors : sum local = 0.000377418, global = -0.000241661
GAMGPCG:  Solving for p_rgh, Initial residual = 0.000115765, Final residual = 5.27779e-08, No Iterations 5
time step continuity errors : sum local = 6.75178e-07, global = -1.75804e-07, cumulative = -9.00173e-08
smoothSolver:  Solving for epsilon, Initial residual = 0.0131924, Final residual = 5.96786e-07, No Iterations 7
smoothSolver:  Solving for k, Initial residual = 0.0103781, Final residual = 9.57483e-07, No Iterations 8
ExecutionTime = 7.99296 s  ClockTime = 9 s

Courant Number mean: 0.0260144 max: 0.136024
Interface Courant Number mean: 0.00575627 max: 0.136024
deltaT = 0.01
Time = 2.92s

MULES: Solving for alpha.water
water volume fraction, min, max = 0.0858001 -1.52095e-09 1
MULES: Solving for alpha.oil
oil volume fraction, min, max = 0.119344 -3.5904e-07 1
MULES: Solving for alpha.mercury
mercury volume fraction, min, max = 0.0443935 -3.37395e-07 1
MULES: Solving for alpha.air
air volume fraction, min, max = 0.750463 -4.25205e-07 1.00001
Phase-sum volume fraction, min, max = 1 0.999991 1.00001
smoothSolver:  Solving for Ux, Initial residual = 0.0181354, Final residual = 3.52967e-07, No Iterations 7
smoothSolver:  Solving for Uy, Initial residual = 0.116297, Final residual = 4.12904e-07, No Iterations 8
GAMG:  Solving for p_rgh, Initial residual = 0.000680903, Final residual = 2.25241e-05, No Iterations 3
time step continuity errors : sum local = 0.000290404, global = 0.000219818
GAMGPCG:  Solving for p_rgh, Initial residual = 0.000129679, Final residual = 3.18426e-08, No Iterations 5
time step continuity errors : sum local = 4.0963e-07, global = 1.80379e-08, cumulative = -7.19794e-08
smoothSolver:  Solving for epsilon, Initial residual = 0.0116172, Final residual = 6.23998e-07, No Iterations 7
smoothSolver:  Solving for k, Initial residual = 0.0101449, Final residual = 9.92884e-07, No Iterations 8
ExecutionTime = 8.0069 s  ClockTime = 9 s

Courant Number mean: 0.0263442 max: 0.134897
Interface Courant Number mean: 0.00585812 max: 0.134897
deltaT = 0.01
Time = 2.93s

MULES: Solving for alpha.water
water volume fraction, min, max = 0.0858001 -7.2795e-07 1
MULES: Solving for alpha.oil
oil volume fraction, min, max = 0.119344 -3.52158e-07 1
MULES: Solving for alpha.mercury
mercury volume fraction, min, max = 0.0443935 -3.17483e-07 1
MULES: Solving for alpha.air
air volume fraction, min, max = 0.750463 -5.42612e-07 1
Phase-sum volume fraction, min, max = 1 0.999997 1
smoothSolver:  Solving for Ux, Initial residual = 0.0185927, Final residual = 3.30413e-07, No Iterations 7
smoothSolver:  Solving for Uy, Initial residual = 0.113853, Final residual = 4.60759e-07, No Iterations 8
GAMG:  Solving for p_rgh, Initial residual = 0.000694737, Final residual = 3.05014e-05, No Iterations 2
time step continuity errors : sum local = 0.000403935, global = -0.000253039
GAMGPCG:  Solving for p_rgh, Initial residual = 0.000119583, Final residual = 4.68098e-08, No Iterations 5
time step continuity errors : sum local = 6.18494e-07, global = -1.80307e-07, cumulative = -2.52286e-07
smoothSolver:  Solving for epsilon, Initial residual = 0.0126964, Final residual = 5.66552e-07, No Iterations 7
smoothSolver:  Solving for k, Initial residual = 0.0098428, Final residual = 9.20823e-07, No Iterations 8
ExecutionTime = 8.0198 s  ClockTime = 9 s

Courant Number mean: 0.0263091 max: 0.134427
Interface Courant Number mean: 0.00582072 max: 0.134427
deltaT = 0.01
Time = 2.94s

MULES: Solving for alpha.water
water volume fraction, min, max = 0.0858001 -1.37429e-09 1
MULES: Solving for alpha.oil
oil volume fraction, min, max = 0.119344 -3.32933e-07 1
MULES: Solving for alpha.mercury
mercury volume fraction, min, max = 0.0443935 -2.95615e-07 1
MULES: Solving for alpha.air
air volume fraction, min, max = 0.750463 -6.23435e-08 1.00001
Phase-sum volume fraction, min, max = 1 0.999992 1.00001
smoothSolver:  Solving for Ux, Initial residual = 0.0203101, Final residual = 3.82314e-07, No Iterations 7
smoothSolver:  Solving for Uy, Initial residual = 0.113175, Final residual = 4.22183e-07, No Iterations 8
GAMG:  Solving for p_rgh, Initial residual = 0.00077599, Final residual = 3.71952e-05, No Iterations 2
time step continuity errors : sum local = 0.000474078, global = 0.000280295
GAMGPCG:  Solving for p_rgh, Initial residual = 0.000136813, Final residual = 6.48689e-08, No Iterations 5
time step continuity errors : sum local = 8.2478e-07, global = -1.00226e-07, cumulative = -3.52512e-07
smoothSolver:  Solving for epsilon, Initial residual = 0.0119539, Final residual = 8.94455e-07, No Iterations 7
smoothSolver:  Solving for k, Initial residual = 0.0101792, Final residual = 5.53638e-07, No Iterations 9
ExecutionTime = 8.03402 s  ClockTime = 9 s

Courant Number mean: 0.0268389 max: 0.136979
Interface Courant Number mean: 0.00591969 max: 0.136979
deltaT = 0.01
Time = 2.95s

MULES: Solving for alpha.water
water volume fraction, min, max = 0.0858001 -1.30637e-09 1
MULES: Solving for alpha.oil
oil volume fraction, min, max = 0.119344 -3.13778e-07 1
MULES: Solving for alpha.mercury
mercury volume fraction, min, max = 0.0443935 -2.76886e-07 1
MULES: Solving for alpha.air
air volume fraction, min, max = 0.750463 -7.99407e-09 1.00001
Phase-sum volume fraction, min, max = 1 0.999993 1.00001
smoothSolver:  Solving for Ux, Initial residual = 0.0216012, Final residual = 3.96609e-07, No Iterations 7
smoothSolver:  Solving for Uy, Initial residual = 0.112764, Final residual = 4.56251e-07, No Iterations 8
GAMG:  Solving for p_rgh, Initial residual = 0.000810298, Final residual = 4.0148e-05, No Iterations 2
time step continuity errors : sum local = 0.000537693, global = -0.000311956
GAMGPCG:  Solving for p_rgh, Initial residual = 0.000140731, Final residual = 6.92844e-08, No Iterations 5
time step continuity errors : sum local = 9.26281e-07, global = 2.80284e-07, cumulative = -7.22282e-08
smoothSolver:  Solving for epsilon, Initial residual = 0.0116479, Final residual = 5.67728e-07, No Iterations 7
smoothSolver:  Solving for k, Initial residual = 0.0102052, Final residual = 8.8622e-07, No Iterations 8
ExecutionTime = 8.05926 s  ClockTime = 9 s

Courant Number mean: 0.0265814 max: 0.139818
Interface Courant Number mean: 0.00599204 max: 0.139818
deltaT = 0.01
Time = 2.96s

MULES: Solving for alpha.water
water volume fraction, min, max = 0.0858001 -1.24265e-09 1
MULES: Solving for alpha.oil
oil volume fraction, min, max = 0.119344 -2.68728e-07 1
MULES: Solving for alpha.mercury
mercury volume fraction, min, max = 0.0443935 -2.60241e-07 1
MULES: Solving for alpha.air
air volume fraction, min, max = 0.750462 -6.99505e-09 1.00001
Phase-sum volume fraction, min, max = 1 0.999993 1.00001
smoothSolver:  Solving for Ux, Initial residual = 0.0227338, Final residual = 4.49249e-07, No Iterations 7
smoothSolver:  Solving for Uy, Initial residual = 0.114165, Final residual = 4.70789e-07, No Iterations 8
GAMG:  Solving for p_rgh, Initial residual = 0.000904215, Final residual = 2.85822e-05, No Iterations 3
time step continuity errors : sum local = 0.000364603, global = 0.000216863
GAMGPCG:  Solving for p_rgh, Initial residual = 0.000181762, Final residual = 2.10236e-08, No Iterations 5
time step continuity errors : sum local = 2.6744e-07, global = 5.98048e-08, cumulative = -1.24234e-08
smoothSolver:  Solving for epsilon, Initial residual = 0.0123934, Final residual = 5.96997e-07, No Iterations 7
smoothSolver:  Solving for k, Initial residual = 0.0107918, Final residual = 9.54867e-07, No Iterations 8
ExecutionTime = 8.07439 s  ClockTime = 9 s

Courant Number mean: 0.0271551 max: 0.142282
Interface Courant Number mean: 0.00605852 max: 0.142282
deltaT = 0.01
Time = 2.97s

MULES: Solving for alpha.water
water volume fraction, min, max = 0.0858001 -1.17347e-09 1
MULES: Solving for alpha.oil
oil volume fraction, min, max = 0.119344 -5.62033e-07 1
MULES: Solving for alpha.mercury
mercury volume fraction, min, max = 0.0443935 -2.45464e-07 1
MULES: Solving for alpha.air
air volume fraction, min, max = 0.750462 -2.79873e-08 1
Phase-sum volume fraction, min, max = 1 0.999997 1
smoothSolver:  Solving for Ux, Initial residual = 0.0240654, Final residual = 3.71165e-07, No Iterations 7
smoothSolver:  Solving for Uy, Initial residual = 0.115579, Final residual = 4.68934e-07, No Iterations 8
GAMG:  Solving for p_rgh, Initial residual = 0.000824672, Final residual = 3.43929e-05, No Iterations 2
time step continuity errors : sum local = 0.000456721, global = -0.000264968
GAMGPCG:  Solving for p_rgh, Initial residual = 0.000127131, Final residual = 4.67386e-08, No Iterations 5
time step continuity errors : sum local = 6.19616e-07, global = 1.77666e-07, cumulative = 1.65242e-07
smoothSolver:  Solving for epsilon, Initial residual = 0.0128417, Final residual = 5.33172e-07, No Iterations 7
smoothSolver:  Solving for k, Initial residual = 0.0112021, Final residual = 8.52665e-07, No Iterations 8
ExecutionTime = 8.08862 s  ClockTime = 9 s

Courant Number mean: 0.0269621 max: 0.14452
Interface Courant Number mean: 0.0061336 max: 0.14452
deltaT = 0.01
Time = 2.98s

MULES: Solving for alpha.water
water volume fraction, min, max = 0.0858001 -1.08981e-09 1
MULES: Solving for alpha.oil
oil volume fraction, min, max = 0.119344 -4.22901e-07 1
MULES: Solving for alpha.mercury
mercury volume fraction, min, max = 0.0443935 -2.3243e-07 1
MULES: Solving for alpha.air
air volume fraction, min, max = 0.750462 -3.96623e-08 1
Phase-sum volume fraction, min, max = 1 0.999996 1
smoothSolver:  Solving for Ux, Initial residual = 0.0261633, Final residual = 4.14692e-07, No Iterations 7
smoothSolver:  Solving for Uy, Initial residual = 0.115342, Final residual = 4.47093e-07, No Iterations 8
GAMG:  Solving for p_rgh, Initial residual = 0.000948128, Final residual = 4.37485e-05, No Iterations 2
time step continuity errors : sum local = 0.000528144, global = 0.000281732
GAMGPCG:  Solving for p_rgh, Initial residual = 0.00013823, Final residual = 5.37388e-08, No Iterations 5
time step continuity errors : sum local = 6.47852e-07, global = -2.02294e-07, cumulative = -3.70521e-08
smoothSolver:  Solving for epsilon, Initial residual = 0.0143033, Final residual = 9.60043e-07, No Iterations 7
smoothSolver:  Solving for k, Initial residual = 0.0125045, Final residual = 5.93893e-07, No Iterations 9
ExecutionTime = 8.09934 s  ClockTime = 9 s

Courant Number mean: 0.0276234 max: 0.146459
Interface Courant Number mean: 0.00614542 max: 0.146459
deltaT = 0.01
Time = 2.99s

MULES: Solving for alpha.water
water volume fraction, min, max = 0.0858001 -1.00438e-09 1
MULES: Solving for alpha.oil
oil volume fraction, min, max = 0.119344 -8.89311e-08 1
MULES: Solving for alpha.mercury
mercury volume fraction, min, max = 0.0443935 -2.20767e-07 1
MULES: Solving for alpha.air
air volume fraction, min, max = 0.750463 -4.42767e-08 1.00001
Phase-sum volume fraction, min, max = 1 0.999996 1.00001
smoothSolver:  Solving for Ux, Initial residual = 0.028188, Final residual = 4.21025e-07, No Iterations 7
smoothSolver:  Solving for Uy, Initial residual = 0.115623, Final residual = 4.7345e-07, No Iterations 8
GAMG:  Solving for p_rgh, Initial residual = 0.000943559, Final residual = 4.2972e-05, No Iterations 2
time step continuity errors : sum local = 0.000562456, global = -0.000300908
GAMGPCG:  Solving for p_rgh, Initial residual = 0.00013878, Final residual = 5.40971e-08, No Iterations 5
time step continuity errors : sum local = 7.07679e-07, global = 2.16064e-07, cumulative = 1.79012e-07
smoothSolver:  Solving for epsilon, Initial residual = 0.0131254, Final residual = 5.34355e-07, No Iterations 7
smoothSolver:  Solving for k, Initial residual = 0.0114488, Final residual = 8.36826e-07, No Iterations 8
ExecutionTime = 8.11001 s  ClockTime = 9 s

Courant Number mean: 0.0272255 max: 0.147956
Interface Courant Number mean: 0.00615838 max: 0.147956
deltaT = 0.01
Time = 3s

MULES: Solving for alpha.water
water volume fraction, min, max = 0.0858001 -1.48955e-09 1
MULES: Solving for alpha.oil
oil volume fraction, min, max = 0.119344 -1.42792e-09 1
MULES: Solving for alpha.mercury
mercury volume fraction, min, max = 0.0443935 -2.10495e-07 1
MULES: Solving for alpha.air
air volume fraction, min, max = 0.750462 -4.87009e-08 1
Phase-sum volume fraction, min, max = 1 0.999993 1
smoothSolver:  Solving for Ux, Initial residual = 0.030086, Final residual = 4.63366e-07, No Iterations 7
smoothSolver:  Solving for Uy, Initial residual = 0.116755, Final residual = 4.82442e-07, No Iterations 8
GAMG:  Solving for p_rgh, Initial residual = 0.00108889, Final residual = 5.18859e-05, No Iterations 2
time step continuity errors : sum local = 0.000626129, global = 0.000307338
GAMGPCG:  Solving for p_rgh, Initial residual = 0.000166239, Final residual = 6.36725e-08, No Iterations 5
time step continuity errors : sum local = 7.67386e-07, global = -2.12955e-07, cumulative = -3.39428e-08
smoothSolver:  Solving for epsilon, Initial residual = 0.0133312, Final residual = 9.07104e-07, No Iterations 7
smoothSolver:  Solving for k, Initial residual = 0.0117385, Final residual = 5.662e-07, No Iterations 9
ExecutionTime = 8.12867 s  ClockTime = 9 s

End

