/*---------------------------------------------------------------------------*\
  =========                 |
  \\      /  F ield         | OpenFOAM: The Open Source CFD Toolbox
   \\    /   O peration     | Website:  https://openfoam.org
    \\  /    A nd           | Version:  13
     \\/     M anipulation  |
\*---------------------------------------------------------------------------*/
Build  : 13-58ed5c2046ef
Exec   : foamRun
Date   : Apr 07 2026
Time   : 16:55:01
Host   : "P0243"
PID    : 939236
I/O    : uncollated
Case   : /home/wk9874/Documents/simvue/connectors-openfoam/tests/integration/example_data/load/movingCone
nProcs : 1
sigFpe : Enabling floating point exception trapping (FOAM_SIGFPE).
fileModificationChecking : Monitoring run-time modified files using timeStampMaster (fileModificationSkew 10)
allowSystemOperations : Allowing user-supplied system call operations

// * * * * * * * * * * * * * * * * * * * * * * * * * * * * * * * * * * * * * //
Create time

Create mesh for time = 0

Expanding #calc at line 38 in file "/home/wk9874/Documents/simvue/connectors-openfoam/tests/integration/example_data/load/movingCone/constant/dynamicMeshDict"
Creating new library in "dynamicCode/_8426bda4daad26744ce90c2c7b77c5ffb06c87be/platforms/linux64GccDPInt32Opt/lib/libcodeStream_8426bda4daad26744ce90c2c7b77c5ffb06c87be.so"
"/opt/openfoam13/etc/codeTemplates/dynamicCode/codeStreamTemplate.C" "/home/wk9874/Documents/simvue/connectors-openfoam/tests/integration/example_data/load/movingCone/dynamicCode/_8426bda4daad26744ce90c2c7b77c5ffb06c87be/codeStreamTemplate.C"
Invoking "wmake -s libso /home/wk9874/Documents/simvue/connectors-openfoam/tests/integration/example_data/load/movingCone/dynamicCode/_8426bda4daad26744ce90c2c7b77c5ffb06c87be"
wmake libso /home/wk9874/Documents/simvue/connectors-openfoam/tests/integration/example_data/load/movingCone/dynamicCode/_8426bda4daad26744ce90c2c7b77c5ffb06c87be
    ln: ./lnInclude
    wmkdep: codeStreamTemplate.C
    Ctoo: codeStreamTemplate.C
    ld: /home/wk9874/Documents/simvue/connectors-openfoam/tests/integration/example_data/load/movingCone/dynamicCode/_8426bda4daad26744ce90c2c7b77c5ffb06c87be/../platforms/linux64GccDPInt32Opt/lib/libcodeStream_8426bda4daad26744ce90c2c7b77c5ffb06c87be.so
Selecting fvMeshTopoChanger meshToMesh
Expanding #calc at line 38 in file "/home/wk9874/Documents/simvue/connectors-openfoam/tests/integration/example_data/load/movingCone/constant/dynamicMeshDict"
Selecting fvMeshMover motionSolver
Selecting motion solver: velocityComponentLaplacian
--> FOAM Warning : 
    From function const Foam::HashTable<Foam::List<int>, Foam::word>& Foam::polyBoundaryMesh::groupPatchIndices() const
    in file meshes/polyMesh/polyBoundaryMesh/polyBoundaryMesh.C at line 506
    Removing patchGroup 'internal' which clashes with patch 0 of the same name.
Selecting motion diffusion: directional
Selecting solver incompressibleFluid
Selecting viscosity model constant
Selecting turbulence model type laminar
    Selecting laminar stress model Stokes
No MRF models present

Courant Number mean: 0 max: 0

PIMPLE: No convergence criteria found


PIMPLE: No corrector convergence criteria found
        Calculations will do 2 corrections


PIMPLE: Operating solver in transient mode with 2 outer correctors



Starting time loop

Reading surface description:
    zNormal

Constructing face momentum Uf
Courant Number mean: 0 max: 0
Time = 5e-06s

PIMPLE: Iteration 1
DICPCG:  Solving for cellMotionUx, Initial residual = 1, Final residual = 2.84162e-09, No Iterations 32
GAMG:  Solving for pcorr, Initial residual = 1, Final residual = 0.0175677, No Iterations 5
DILUPBiCGStab:  Solving for Ux, Initial residual = 1, Final residual = 0.00253886, No Iterations 1
DILUPBiCGStab:  Solving for Uy, Initial residual = 1, Final residual = 0.00306861, No Iterations 1
DILUPBiCGStab:  Solving for Uz, Initial residual = 0.0056967, Final residual = 1.4145e-05, No Iterations 1
GAMG:  Solving for p, Initial residual = 1, Final residual = 6.34666e-07, No Iterations 17
time step continuity errors : sum local = 6.39054e-10, global = -1.58257e-10
PIMPLE: Iteration 2
DILUPBiCGStab:  Solving for Ux, Initial residual = 0.0728019, Final residual = 5.90679e-09, No Iterations 2
DILUPBiCGStab:  Solving for Uy, Initial residual = 0.0641341, Final residual = 2.67174e-08, No Iterations 2
DILUPBiCGStab:  Solving for Uz, Initial residual = 0.0257367, Final residual = 2.26342e-07, No Iterations 1
GAMG:  Solving for p, Initial residual = 0.0127135, Final residual = 9.85499e-07, No Iterations 10
time step continuity errors : sum local = 8.38131e-08, global = 1.57504e-08, cumulative = 1.57504e-08
ExecutionTime = 0.097869 s  ClockTime = 0 s

Courant Number mean: 0.060977 max: 0.509217
deltaT = 4.75e-06
Time = 9.75e-06s

PIMPLE: Iteration 1
DICPCG:  Solving for cellMotionUx, Initial residual = 2.3974e-06, Final residual = 7.61161e-09, No Iterations 9
GAMG:  Solving for pcorr, Initial residual = 1, Final residual = 0.0190257, No Iterations 4
DILUPBiCGStab:  Solving for Ux, Initial residual = 0.316019, Final residual = 0.00088647, No Iterations 1
DILUPBiCGStab:  Solving for Uy, Initial residual = 0.316462, Final residual = 0.000694479, No Iterations 1
DILUPBiCGStab:  Solving for Uz, Initial residual = 0.327357, Final residual = 0.000251327, No Iterations 1
GAMG:  Solving for p, Initial residual = 0.0204778, Final residual = 6.54908e-07, No Iterations 12
time step continuity errors : sum local = 4.13748e-08, global = 9.54785e-09
PIMPLE: Iteration 2
DILUPBiCGStab:  Solving for Ux, Initial residual = 0.0653817, Final residual = 1.51183e-08, No Iterations 2
DILUPBiCGStab:  Solving for Uy, Initial residual = 0.0433886, Final residual = 2.94919e-08, No Iterations 2
DILUPBiCGStab:  Solving for Uz, Initial residual = 0.0203173, Final residual = 3.6581e-07, No Iterations 1
GAMG:  Solving for p, Initial residual = 0.116564, Final residual = 4.67098e-07, No Iterations 13
time step continuity errors : sum local = 3.35568e-09, global = -7.19441e-10, cumulative = 1.5031e-08
ExecutionTime = 0.110352 s  ClockTime = 0 s

Courant Number mean: 0.0579429 max: 0.466409
deltaT = 5.01389e-06
Time = 1.47639e-05s

PIMPLE: Iteration 1
DICPCG:  Solving for cellMotionUx, Initial residual = 2.34528e-06, Final residual = 2.68103e-09, No Iterations 10
GAMG:  Solving for pcorr, Initial residual = 1, Final residual = 0.0172717, No Iterations 4
DILUPBiCGStab:  Solving for Ux, Initial residual = 0.0274654, Final residual = 0.000115398, No Iterations 1
DILUPBiCGStab:  Solving for Uy, Initial residual = 0.030055, Final residual = 0.0001919, No Iterations 1
DILUPBiCGStab:  Solving for Uz, Initial residual = 0.0516015, Final residual = 5.78399e-05, No Iterations 1
GAMG:  Solving for p, Initial residual = 0.0775572, Final residual = 5.18808e-07, No Iterations 12
time step continuity errors : sum local = 2.68825e-09, global = 4.44146e-10
PIMPLE: Iteration 2
DILUPBiCGStab:  Solving for Ux, Initial residual = 0.00628115, Final residual = 1.24556e-07, No Iterations 1
DILUPBiCGStab:  Solving for Uy, Initial residual = 0.00821276, Final residual = 2.95731e-07, No Iterations 1
DILUPBiCGStab:  Solving for Uz, Initial residual = 0.00217285, Final residual = 4.23103e-08, No Iterations 1
GAMG:  Solving for p, Initial residual = 0.11494, Final residual = 9.83733e-07, No Iterations 12
time step continuity errors : sum local = 1.5084e-09, global = -2.98129e-10, cumulative = 1.47329e-08
ExecutionTime = 0.123429 s  ClockTime = 0 s

Courant Number mean: 0.0611771 max: 0.487401
deltaT = 5.01389e-06
Time = 1.97778e-05s

PIMPLE: Iteration 1
DICPCG:  Solving for cellMotionUx, Initial residual = 2.5461e-06, Final residual = 8.38817e-09, No Iterations 9
GAMG:  Solving for pcorr, Initial residual = 1, Final residual = 0.0177832, No Iterations 4
DILUPBiCGStab:  Solving for Ux, Initial residual = 0.00996007, Final residual = 4.13606e-05, No Iterations 1
DILUPBiCGStab:  Solving for Uy, Initial residual = 0.00592786, Final residual = 4.87499e-05, No Iterations 1
DILUPBiCGStab:  Solving for Uz, Initial residual = 0.0349909, Final residual = 4.46631e-05, No Iterations 1
GAMG:  Solving for p, Initial residual = 0.0678081, Final residual = 4.73434e-07, No Iterations 12
time step continuity errors : sum local = 8.33963e-10, global = 1.74725e-10
PIMPLE: Iteration 2
DILUPBiCGStab:  Solving for Ux, Initial residual = 0.0013442, Final residual = 2.88899e-08, No Iterations 1
DILUPBiCGStab:  Solving for Uy, Initial residual = 0.00145378, Final residual = 5.13102e-08, No Iterations 1
DILUPBiCGStab:  Solving for Uz, Initial residual = 0.000972232, Final residual = 2.08255e-08, No Iterations 1
GAMG:  Solving for p, Initial residual = 0.067036, Final residual = 6.40679e-07, No Iterations 12
time step continuity errors : sum local = 4.24288e-10, global = -9.10029e-11, cumulative = 1.46418e-08
ExecutionTime = 0.134984 s  ClockTime = 0 s

Courant Number mean: 0.0611936 max: 0.484675
deltaT = 5.01389e-06
Time = 2.47917e-05s

PIMPLE: Iteration 1
DICPCG:  Solving for cellMotionUx, Initial residual = 2.61626e-06, Final residual = 3.48577e-09, No Iterations 10
GAMG:  Solving for pcorr, Initial residual = 1, Final residual = 0.0179754, No Iterations 4
DILUPBiCGStab:  Solving for Ux, Initial residual = 0.00664196, Final residual = 2.5601e-05, No Iterations 1
DILUPBiCGStab:  Solving for Uy, Initial residual = 0.00424007, Final residual = 2.51957e-05, No Iterations 1
DILUPBiCGStab:  Solving for Uz, Initial residual = 0.0297582, Final residual = 3.75248e-05, No Iterations 1
GAMG:  Solving for p, Initial residual = 0.050422, Final residual = 5.21552e-07, No Iterations 11
time step continuity errors : sum local = 5.33181e-10, global = 1.14022e-10
PIMPLE: Iteration 2
DILUPBiCGStab:  Solving for Ux, Initial residual = 0.000320808, Final residual = 1.17105e-08, No Iterations 1
DILUPBiCGStab:  Solving for Uy, Initial residual = 0.000353371, Final residual = 2.01195e-08, No Iterations 1
DILUPBiCGStab:  Solving for Uz, Initial residual = 0.000766051, Final residual = 1.70974e-08, No Iterations 1
GAMG:  Solving for p, Initial residual = 0.0173059, Final residual = 6.10036e-07, No Iterations 10
time step continuity errors : sum local = 4.89773e-10, global = -1.09992e-10, cumulative = 1.45319e-08
ExecutionTime = 0.146178 s  ClockTime = 0 s

Courant Number mean: 0.0612129 max: 0.482481
deltaT = 5.01389e-06
Time = 2.98056e-05s

PIMPLE: Iteration 1
DICPCG:  Solving for cellMotionUx, Initial residual = 2.67846e-06, Final residual = 8.82418e-09, No Iterations 9
GAMG:  Solving for pcorr, Initial residual = 1, Final residual = 0.0180421, No Iterations 4
DILUPBiCGStab:  Solving for Ux, Initial residual = 0.00573522, Final residual = 2.19229e-05, No Iterations 1
DILUPBiCGStab:  Solving for Uy, Initial residual = 0.00398323, Final residual = 2.21698e-05, No Iterations 1
DILUPBiCGStab:  Solving for Uz, Initial residual = 0.0275527, Final residual = 3.30886e-05, No Iterations 1
GAMG:  Solving for p, Initial residual = 0.0341858, Final residual = 5.6026e-07, No Iterations 9
time step continuity errors : sum local = 4.68464e-10, global = 1.26252e-10
PIMPLE: Iteration 2
DILUPBiCGStab:  Solving for Ux, Initial residual = 0.000132769, Final residual = 8.58292e-07, No Iterations 1
DILUPBiCGStab:  Solving for Uy, Initial residual = 0.000202608, Final residual = 1.69784e-08, No Iterations 1
DILUPBiCGStab:  Solving for Uz, Initial residual = 0.000689864, Final residual = 1.38858e-08, No Iterations 1
GAMG:  Solving for p, Initial residual = 0.00933698, Final residual = 4.57919e-07, No Iterations 8
time step continuity errors : sum local = 3.6461e-10, global = 1.1791e-10, cumulative = 1.46498e-08
ExecutionTime = 0.157666 s  ClockTime = 0 s

Courant Number mean: 0.0612378 max: 0.480521
deltaT = 5.01389e-06
Time = 3.48194e-05s

PIMPLE: Iteration 1
DICPCG:  Solving for cellMotionUx, Initial residual = 2.7386e-06, Final residual = 4.24789e-09, No Iterations 10
GAMG:  Solving for pcorr, Initial residual = 1, Final residual = 0.0181239, No Iterations 4
DILUPBiCGStab:  Solving for Ux, Initial residual = 0.00532671, Final residual = 2.05998e-05, No Iterations 1
DILUPBiCGStab:  Solving for Uy, Initial residual = 0.00370095, Final residual = 2.17942e-05, No Iterations 1
DILUPBiCGStab:  Solving for Uz, Initial residual = 0.0254423, Final residual = 2.98466e-05, No Iterations 1
GAMG:  Solving for p, Initial residual = 0.0260207, Final residual = 8.45627e-07, No Iterations 8
time step continuity errors : sum local = 6.54457e-10, global = -1.33218e-10
PIMPLE: Iteration 2
DILUPBiCGStab:  Solving for Ux, Initial residual = 0.000114943, Final residual = 8.19317e-07, No Iterations 1
DILUPBiCGStab:  Solving for Uy, Initial residual = 0.000187766, Final residual = 1.67861e-08, No Iterations 1
DILUPBiCGStab:  Solving for Uz, Initial residual = 0.000620539, Final residual = 1.28562e-08, No Iterations 1
GAMG:  Solving for p, Initial residual = 0.00744792, Final residual = 5.0345e-07, No Iterations 8
time step continuity errors : sum local = 3.87055e-10, global = 8.41447e-11, cumulative = 1.47339e-08
ExecutionTime = 0.169364 s  ClockTime = 1 s

Courant Number mean: 0.0612694 max: 0.478631
deltaT = 5.01389e-06
Time = 3.98333e-05s

PIMPLE: Iteration 1
DICPCG:  Solving for cellMotionUx, Initial residual = 2.79272e-06, Final residual = 4.21659e-09, No Iterations 10
GAMG:  Solving for pcorr, Initial residual = 1, Final residual = 0.0181598, No Iterations 4
DILUPBiCGStab:  Solving for Ux, Initial residual = 0.00507338, Final residual = 1.96772e-05, No Iterations 1
DILUPBiCGStab:  Solving for Uy, Initial residual = 0.00355685, Final residual = 2.1773e-05, No Iterations 1
DILUPBiCGStab:  Solving for Uz, Initial residual = 0.0242474, Final residual = 2.66555e-05, No Iterations 1
GAMG:  Solving for p, Initial residual = 0.0218659, Final residual = 4.76981e-07, No Iterations 8
time step continuity errors : sum local = 3.55756e-10, global = -5.87325e-11
PIMPLE: Iteration 2
DILUPBiCGStab:  Solving for Ux, Initial residual = 0.000112042, Final residual = 7.45111e-07, No Iterations 1
DILUPBiCGStab:  Solving for Uy, Initial residual = 0.000169198, Final residual = 1.45613e-08, No Iterations 1
DILUPBiCGStab:  Solving for Uz, Initial residual = 0.000571128, Final residual = 1.11772e-08, No Iterations 1
GAMG:  Solving for p, Initial residual = 0.00721777, Final residual = 5.20626e-07, No Iterations 8
time step continuity errors : sum local = 3.86157e-10, global = 7.47131e-11, cumulative = 1.48086e-08
ExecutionTime = 0.180057 s  ClockTime = 1 s

Courant Number mean: 0.0613068 max: 0.476848
deltaT = 5.01389e-06
Time = 4.48472e-05s

PIMPLE: Iteration 1
DICPCG:  Solving for cellMotionUx, Initial residual = 2.84358e-06, Final residual = 4.69603e-09, No Iterations 10
GAMG:  Solving for pcorr, Initial residual = 1, Final residual = 0.0181967, No Iterations 4
DILUPBiCGStab:  Solving for Ux, Initial residual = 0.00485472, Final residual = 1.87841e-05, No Iterations 1
DILUPBiCGStab:  Solving for Uy, Initial residual = 0.00348385, Final residual = 2.15124e-05, No Iterations 1
DILUPBiCGStab:  Solving for Uz, Initial residual = 0.0232817, Final residual = 2.4755e-05, No Iterations 1
GAMG:  Solving for p, Initial residual = 0.0185499, Final residual = 8.09428e-07, No Iterations 8
time step continuity errors : sum local = 5.86812e-10, global = 1.38089e-10
PIMPLE: Iteration 2
DILUPBiCGStab:  Solving for Ux, Initial residual = 9.92882e-05, Final residual = 6.08891e-07, No Iterations 1
DILUPBiCGStab:  Solving for Uy, Initial residual = 0.000141564, Final residual = 1.11341e-08, No Iterations 1
DILUPBiCGStab:  Solving for Uz, Initial residual = 0.000532879, Final residual = 1.04353e-08, No Iterations 1
GAMG:  Solving for p, Initial residual = 0.00667148, Final residual = 4.56751e-07, No Iterations 8
time step continuity errors : sum local = 3.23493e-10, global = 1.03535e-10, cumulative = 1.49122e-08
ExecutionTime = 0.190789 s  ClockTime = 1 s

Courant Number mean: 0.0613491 max: 0.475177
deltaT = 5.01389e-06
Time = 4.98611e-05s

PIMPLE: Iteration 1
DICPCG:  Solving for cellMotionUx, Initial residual = 2.88859e-06, Final residual = 4.77762e-09, No Iterations 10
GAMG:  Solving for pcorr, Initial residual = 1, Final residual = 0.0182359, No Iterations 4
DILUPBiCGStab:  Solving for Ux, Initial residual = 0.00463673, Final residual = 1.75932e-05, No Iterations 1
DILUPBiCGStab:  Solving for Uy, Initial residual = 0.00336719, Final residual = 2.10639e-05, No Iterations 1
DILUPBiCGStab:  Solving for Uz, Initial residual = 0.0225131, Final residual = 2.27851e-05, No Iterations 1
GAMG:  Solving for p, Initial residual = 0.0180246, Final residual = 6.57038e-07, No Iterations 8
time step continuity errors : sum local = 4.57461e-10, global = -1.18404e-10
PIMPLE: Iteration 2
DILUPBiCGStab:  Solving for Ux, Initial residual = 9.26898e-05, Final residual = 6.18654e-07, No Iterations 1
DILUPBiCGStab:  Solving for Uy, Initial residual = 0.000140899, Final residual = 1.19378e-08, No Iterations 1
DILUPBiCGStab:  Solving for Uz, Initial residual = 0.000504556, Final residual = 9.4849e-09, No Iterations 1
GAMG:  Solving for p, Initial residual = 0.00571126, Final residual = 7.82099e-07, No Iterations 7
time step continuity errors : sum local = 5.41275e-10, global = 1.2257e-10, cumulative = 1.50347e-08
ExecutionTime = 0.20172 s  ClockTime = 1 s

Courant Number mean: 0.0613977 max: 0.473408
deltaT = 5.01389e-06
Time = 5.4875e-05s

PIMPLE: Iteration 1
DICPCG:  Solving for cellMotionUx, Initial residual = 2.92915e-06, Final residual = 4.92616e-09, No Iterations 10
GAMG:  Solving for pcorr, Initial residual = 1, Final residual = 0.0197712, No Iterations 4
DILUPBiCGStab:  Solving for Ux, Initial residual = 0.00447572, Final residual = 1.70087e-05, No Iterations 1
DILUPBiCGStab:  Solving for Uy, Initial residual = 0.00336632, Final residual = 2.11598e-05, No Iterations 1
DILUPBiCGStab:  Solving for Uz, Initial residual = 0.0215198, Final residual = 2.17314e-05, No Iterations 1
GAMG:  Solving for p, Initial residual = 0.0146183, Final residual = 5.46243e-07, No Iterations 9
time step continuity errors : sum local = 3.72889e-10, global = 7.92771e-11
PIMPLE: Iteration 2
DILUPBiCGStab:  Solving for Ux, Initial residual = 9.0902e-05, Final residual = 5.63879e-07, No Iterations 1
DILUPBiCGStab:  Solving for Uy, Initial residual = 0.000124874, Final residual = 9.39653e-07, No Iterations 1
DILUPBiCGStab:  Solving for Uz, Initial residual = 0.000455091, Final residual = 9.03234e-09, No Iterations 1
GAMG:  Solving for p, Initial residual = 0.00575848, Final residual = 4.97564e-07, No Iterations 8
time step continuity errors : sum local = 3.3033e-10, global = -8.07041e-11, cumulative = 1.4954e-08
ExecutionTime = 0.212418 s  ClockTime = 1 s

Courant Number mean: 0.0614478 max: 0.473163
deltaT = 5.01389e-06
Time = 5.98889e-05s

PIMPLE: Iteration 1
DICPCG:  Solving for cellMotionUx, Initial residual = 2.96455e-06, Final residual = 4.99353e-09, No Iterations 10
GAMG:  Solving for pcorr, Initial residual = 1, Final residual = 0.0198032, No Iterations 4
DILUPBiCGStab:  Solving for Ux, Initial residual = 0.00429353, Final residual = 1.61465e-05, No Iterations 1
DILUPBiCGStab:  Solving for Uy, Initial residual = 0.00327068, Final residual = 2.07342e-05, No Iterations 1
DILUPBiCGStab:  Solving for Uz, Initial residual = 0.0205617, Final residual = 2.02666e-05, No Iterations 1
GAMG:  Solving for p, Initial residual = 0.0107143, Final residual = 4.87057e-07, No Iterations 8
time step continuity errors : sum local = 3.215e-10, global = 6.62286e-11
PIMPLE: Iteration 2
DILUPBiCGStab:  Solving for Ux, Initial residual = 8.90561e-05, Final residual = 5.39427e-07, No Iterations 1
DILUPBiCGStab:  Solving for Uy, Initial residual = 0.000108902, Final residual = 8.66547e-07, No Iterations 1
DILUPBiCGStab:  Solving for Uz, Initial residual = 0.000434327, Final residual = 7.99983e-09, No Iterations 1
GAMG:  Solving for p, Initial residual = 0.00537868, Final residual = 5.30404e-07, No Iterations 8
time step continuity errors : sum local = 3.42597e-10, global = -8.4936e-11, cumulative = 1.48691e-08
ExecutionTime = 0.222821 s  ClockTime = 1 s

Courant Number mean: 0.0615009 max: 0.481017
deltaT = 5.01389e-06
Time = 6.49028e-05s

PIMPLE: Iteration 1
DICPCG:  Solving for cellMotionUx, Initial residual = 2.9953e-06, Final residual = 5.07821e-09, No Iterations 10
GAMG:  Solving for pcorr, Initial residual = 1, Final residual = 0.0198382, No Iterations 4
DILUPBiCGStab:  Solving for Ux, Initial residual = 0.0041375, Final residual = 1.54193e-05, No Iterations 1
DILUPBiCGStab:  Solving for Uy, Initial residual = 0.00320718, Final residual = 2.03529e-05, No Iterations 1
DILUPBiCGStab:  Solving for Uz, Initial residual = 0.0196906, Final residual = 1.95461e-05, No Iterations 1
GAMG:  Solving for p, Initial residual = 0.0101134, Final residual = 4.84681e-07, No Iterations 8
time step continuity errors : sum local = 3.11655e-10, global = 6.81834e-11
PIMPLE: Iteration 2
DILUPBiCGStab:  Solving for Ux, Initial residual = 8.59013e-05, Final residual = 5.06313e-07, No Iterations 1
DILUPBiCGStab:  Solving for Uy, Initial residual = 0.000100903, Final residual = 8.09016e-07, No Iterations 1
DILUPBiCGStab:  Solving for Uz, Initial residual = 0.000407603, Final residual = 9.72914e-09, No Iterations 1
GAMG:  Solving for p, Initial residual = 0.00510961, Final residual = 5.37625e-07, No Iterations 8
time step continuity errors : sum local = 3.38824e-10, global = -8.57353e-11, cumulative = 1.47834e-08
ExecutionTime = 0.235082 s  ClockTime = 1 s

Courant Number mean: 0.0615547 max: 0.488317
deltaT = 5.01389e-06
Time = 6.99167e-05s

PIMPLE: Iteration 1
DICPCG:  Solving for cellMotionUx, Initial residual = 3.0213e-06, Final residual = 5.16424e-09, No Iterations 10
GAMG:  Solving for pcorr, Initial residual = 1, Final residual = 0.0198687, No Iterations 4
DILUPBiCGStab:  Solving for Ux, Initial residual = 0.00400749, Final residual = 1.47199e-05, No Iterations 1
DILUPBiCGStab:  Solving for Uy, Initial residual = 0.00316087, Final residual = 2.00007e-05, No Iterations 1
DILUPBiCGStab:  Solving for Uz, Initial residual = 0.0186901, Final residual = 1.82604e-05, No Iterations 1
GAMG:  Solving for p, Initial residual = 0.00913283, Final residual = 4.24361e-07, No Iterations 8
time step continuity errors : sum local = 2.66442e-10, global = 3.71045e-11
PIMPLE: Iteration 2
DILUPBiCGStab:  Solving for Ux, Initial residual = 7.88843e-05, Final residual = 4.77538e-07, No Iterations 1
DILUPBiCGStab:  Solving for Uy, Initial residual = 9.52916e-05, Final residual = 7.40232e-07, No Iterations 1
DILUPBiCGStab:  Solving for Uz, Initial residual = 0.000391866, Final residual = 9.92968e-07, No Iterations 1
GAMG:  Solving for p, Initial residual = 0.00465191, Final residual = 5.44023e-07, No Iterations 8
time step continuity errors : sum local = 3.3429e-10, global = -8.7222e-11, cumulative = 1.46961e-08
ExecutionTime = 0.246355 s  ClockTime = 1 s

Courant Number mean: 0.0616151 max: 0.494942
deltaT = 5.01389e-06
Time = 7.49306e-05s

PIMPLE: Iteration 1
DICPCG:  Solving for cellMotionUx, Initial residual = 3.04292e-06, Final residual = 5.25764e-09, No Iterations 10
GAMG:  Solving for pcorr, Initial residual = 1, Final residual = 0.0198951, No Iterations 4
DILUPBiCGStab:  Solving for Ux, Initial residual = 0.00389326, Final residual = 1.40368e-05, No Iterations 1
DILUPBiCGStab:  Solving for Uy, Initial residual = 0.00310789, Final residual = 1.95573e-05, No Iterations 1
DILUPBiCGStab:  Solving for Uz, Initial residual = 0.0181729, Final residual = 1.85797e-05, No Iterations 1
GAMG:  Solving for p, Initial residual = 0.00829583, Final residual = 4.0674e-07, No Iterations 8
time step continuity errors : sum local = 2.49592e-10, global = 5.36369e-11
PIMPLE: Iteration 2
DILUPBiCGStab:  Solving for Ux, Initial residual = 7.51732e-05, Final residual = 4.59096e-07, No Iterations 1
DILUPBiCGStab:  Solving for Uy, Initial residual = 8.83305e-05, Final residual = 6.89149e-07, No Iterations 1
DILUPBiCGStab:  Solving for Uz, Initial residual = 0.000369773, Final residual = 1.03173e-08, No Iterations 1
GAMG:  Solving for p, Initial residual = 0.00446067, Final residual = 5.20844e-07, No Iterations 8
time step continuity errors : sum local = 3.13943e-10, global = -8.20605e-11, cumulative = 1.46141e-08
ExecutionTime = 0.25774 s  ClockTime = 1 s

Courant Number mean: 0.0616773 max: 0.500908
deltaT = 5.01389e-06
Time = 7.99444e-05s

PIMPLE: Iteration 1
DICPCG:  Solving for cellMotionUx, Initial residual = 3.06018e-06, Final residual = 5.35605e-09, No Iterations 10
GAMG:  Solving for pcorr, Initial residual = 1, Final residual = 0.01992, No Iterations 4
DILUPBiCGStab:  Solving for Ux, Initial residual = 0.00379157, Final residual = 1.33933e-05, No Iterations 1
DILUPBiCGStab:  Solving for Uy, Initial residual = 0.00306748, Final residual = 1.90772e-05, No Iterations 1
DILUPBiCGStab:  Solving for Uz, Initial residual = 0.0176949, Final residual = 1.8249e-05, No Iterations 1
GAMG:  Solving for p, Initial residual = 0.00780362, Final residual = 5.53859e-07, No Iterations 8
time step continuity errors : sum local = 3.33655e-10, global = 6.08748e-11
PIMPLE: Iteration 2
DILUPBiCGStab:  Solving for Ux, Initial residual = 7.30062e-05, Final residual = 4.3369e-07, No Iterations 1
DILUPBiCGStab:  Solving for Uy, Initial residual = 8.51748e-05, Final residual = 6.4898e-07, No Iterations 1
DILUPBiCGStab:  Solving for Uz, Initial residual = 0.000356328, Final residual = 9.61969e-07, No Iterations 1
GAMG:  Solving for p, Initial residual = 0.00426784, Final residual = 5.04995e-07, No Iterations 8
time step continuity errors : sum local = 2.98081e-10, global = -7.74461e-11, cumulative = 1.45366e-08
ExecutionTime = 0.270333 s  ClockTime = 1 s

Courant Number mean: 0.0617386 max: 0.506267
deltaT = 4.01111e-06
Time = 8.39556e-05s

PIMPLE: Iteration 1
DICPCG:  Solving for cellMotionUx, Initial residual = 3.07326e-06, Final residual = 5.47197e-09, No Iterations 10
GAMG:  Solving for pcorr, Initial residual = 1, Final residual = 0.0198636, No Iterations 4
DILUPBiCGStab:  Solving for Ux, Initial residual = 0.00296071, Final residual = 7.00526e-06, No Iterations 1
DILUPBiCGStab:  Solving for Uy, Initial residual = 0.00242168, Final residual = 1.04159e-05, No Iterations 1
DILUPBiCGStab:  Solving for Uz, Initial residual = 0.0142856, Final residual = 9.58569e-06, No Iterations 1
GAMG:  Solving for p, Initial residual = 0.0149158, Final residual = 8.03937e-07, No Iterations 7
time step continuity errors : sum local = 3.16407e-10, global = 7.34697e-11
PIMPLE: Iteration 2
DILUPBiCGStab:  Solving for Ux, Initial residual = 5.00128e-05, Final residual = 2.58279e-07, No Iterations 1
DILUPBiCGStab:  Solving for Uy, Initial residual = 5.6055e-05, Final residual = 3.04854e-07, No Iterations 1
DILUPBiCGStab:  Solving for Uz, Initial residual = 0.000234268, Final residual = 4.49431e-07, No Iterations 1
GAMG:  Solving for p, Initial residual = 0.00421879, Final residual = 7.51529e-07, No Iterations 7
time step continuity errors : sum local = 2.98778e-10, global = -6.5024e-11, cumulative = 1.44716e-08
ExecutionTime = 0.282411 s  ClockTime = 1 s

Courant Number mean: 0.0494295 max: 0.407524
deltaT = 4.01111e-06
Time = 8.79667e-05s

PIMPLE: Iteration 1
DICPCG:  Solving for cellMotionUx, Initial residual = 2.46189e-06, Final residual = 4.68601e-09, No Iterations 10
GAMG:  Solving for pcorr, Initial residual = 1, Final residual = 0.0199176, No Iterations 4
DILUPBiCGStab:  Solving for Ux, Initial residual = 0.00293093, Final residual = 6.79847e-06, No Iterations 1
DILUPBiCGStab:  Solving for Uy, Initial residual = 0.00241622, Final residual = 9.93183e-06, No Iterations 1
DILUPBiCGStab:  Solving for Uz, Initial residual = 0.0142414, Final residual = 9.74058e-06, No Iterations 1
GAMG:  Solving for p, Initial residual = 0.00964866, Final residual = 5.20521e-07, No Iterations 8
time step continuity errors : sum local = 2.05554e-10, global = 4.47644e-11
PIMPLE: Iteration 2
DILUPBiCGStab:  Solving for Ux, Initial residual = 4.51786e-05, Final residual = 1.85273e-07, No Iterations 1
DILUPBiCGStab:  Solving for Uy, Initial residual = 5.7486e-05, Final residual = 3.26927e-07, No Iterations 1
DILUPBiCGStab:  Solving for Uz, Initial residual = 0.000220001, Final residual = 4.33094e-07, No Iterations 1
GAMG:  Solving for p, Initial residual = 0.00340686, Final residual = 8.70694e-07, No Iterations 7
time step continuity errors : sum local = 3.37276e-10, global = -7.34124e-11, cumulative = 1.43982e-08
ExecutionTime = 0.293366 s  ClockTime = 1 s

Courant Number mean: 0.0494678 max: 0.410145
deltaT = 4.01111e-06
Time = 9.19778e-05s

PIMPLE: Iteration 1
DICPCG:  Solving for cellMotionUx, Initial residual = 2.46561e-06, Final residual = 4.66998e-09, No Iterations 10
GAMG:  Solving for pcorr, Initial residual = 1, Final residual = 0.0199517, No Iterations 4
DILUPBiCGStab:  Solving for Ux, Initial residual = 0.00287039, Final residual = 6.60559e-06, No Iterations 1
DILUPBiCGStab:  Solving for Uy, Initial residual = 0.00239059, Final residual = 9.87015e-06, No Iterations 1
DILUPBiCGStab:  Solving for Uz, Initial residual = 0.0137828, Final residual = 9.77659e-06, No Iterations 1
GAMG:  Solving for p, Initial residual = 0.00815461, Final residual = 6.76102e-07, No Iterations 7
time step continuity errors : sum local = 2.61068e-10, global = 5.98223e-11
PIMPLE: Iteration 2
DILUPBiCGStab:  Solving for Ux, Initial residual = 4.35908e-05, Final residual = 1.65798e-07, No Iterations 1
DILUPBiCGStab:  Solving for Uy, Initial residual = 5.32902e-05, Final residual = 2.97506e-07, No Iterations 1
DILUPBiCGStab:  Solving for Uz, Initial residual = 0.000216102, Final residual = 4.81927e-07, No Iterations 1
GAMG:  Solving for p, Initial residual = 0.00333386, Final residual = 6.82174e-07, No Iterations 7
time step continuity errors : sum local = 2.60473e-10, global = -5.22922e-11, cumulative = 1.43459e-08
ExecutionTime = 0.304226 s  ClockTime = 1 s

Courant Number mean: 0.0495061 max: 0.413795
deltaT = 4.01111e-06
Time = 9.59889e-05s

PIMPLE: Iteration 1
DICPCG:  Solving for cellMotionUx, Initial residual = 2.46747e-06, Final residual = 4.74018e-09, No Iterations 10
GAMG:  Solving for pcorr, Initial residual = 1, Final residual = 0.0199797, No Iterations 4
DILUPBiCGStab:  Solving for Ux, Initial residual = 0.00281912, Final residual = 6.48798e-06, No Iterations 1
DILUPBiCGStab:  Solving for Uy, Initial residual = 0.00237228, Final residual = 9.73363e-06, No Iterations 1
DILUPBiCGStab:  Solving for Uz, Initial residual = 0.0134632, Final residual = 9.64598e-06, No Iterations 1
GAMG:  Solving for p, Initial residual = 0.00760814, Final residual = 4.58011e-07, No Iterations 8
time step continuity errors : sum local = 1.74374e-10, global = 4.38019e-11
PIMPLE: Iteration 2
DILUPBiCGStab:  Solving for Ux, Initial residual = 4.20399e-05, Final residual = 1.52746e-07, No Iterations 1
DILUPBiCGStab:  Solving for Uy, Initial residual = 4.72205e-05, Final residual = 2.58294e-07, No Iterations 1
DILUPBiCGStab:  Solving for Uz, Initial residual = 0.000207313, Final residual = 4.21474e-07, No Iterations 1
GAMG:  Solving for p, Initial residual = 0.00325399, Final residual = 7.76954e-07, No Iterations 7
time step continuity errors : sum local = 2.91728e-10, global = -6.42277e-11, cumulative = 1.42817e-08
ExecutionTime = 0.315486 s  ClockTime = 1 s

Courant Number mean: 0.0495437 max: 0.417378
deltaT = 4.01111e-06
Time = 0.0001s

PIMPLE: Iteration 1
DICPCG:  Solving for cellMotionUx, Initial residual = 2.46753e-06, Final residual = 4.79004e-09, No Iterations 10
GAMG:  Solving for pcorr, Initial residual = 1, Final residual = 0.00810982, No Iterations 5
DILUPBiCGStab:  Solving for Ux, Initial residual = 0.00276742, Final residual = 6.34376e-06, No Iterations 1
DILUPBiCGStab:  Solving for Uy, Initial residual = 0.00234133, Final residual = 9.39032e-06, No Iterations 1
DILUPBiCGStab:  Solving for Uz, Initial residual = 0.0134104, Final residual = 9.87962e-06, No Iterations 1
GAMG:  Solving for p, Initial residual = 0.00660927, Final residual = 9.25133e-07, No Iterations 7
time step continuity errors : sum local = 3.46476e-10, global = 7.88884e-11
PIMPLE: Iteration 2
DILUPBiCGStab:  Solving for Ux, Initial residual = 4.1153e-05, Final residual = 1.45864e-07, No Iterations 1
DILUPBiCGStab:  Solving for Uy, Initial residual = 4.51945e-05, Final residual = 2.43279e-07, No Iterations 1
DILUPBiCGStab:  Solving for Uz, Initial residual = 0.000205005, Final residual = 4.16208e-07, No Iterations 1
GAMG:  Solving for p, Initial residual = 0.00315917, Final residual = 8.00484e-07, No Iterations 7
time step continuity errors : sum local = 2.96176e-10, global = -6.63058e-11, cumulative = 1.42154e-08
ExecutionTime = 0.339084 s  ClockTime = 1 s

Courant Number mean: 0.0495816 max: 0.420723
deltaT = 4.7619e-06
Time = 0.000104762s

PIMPLE: Iteration 1
DICPCG:  Solving for cellMotionUx, Initial residual = 2.46591e-06, Final residual = 4.85596e-09, No Iterations 10
GAMG:  Solving for pcorr, Initial residual = 1, Final residual = 0.00814356, No Iterations 5
DILUPBiCGStab:  Solving for Ux, Initial residual = 0.00322727, Final residual = 9.88918e-06, No Iterations 1
DILUPBiCGStab:  Solving for Uy, Initial residual = 0.00274535, Final residual = 1.41981e-05, No Iterations 1
DILUPBiCGStab:  Solving for Uz, Initial residual = 0.0152745, Final residual = 1.57433e-05, No Iterations 1
GAMG:  Solving for p, Initial residual = 0.0144761, Final residual = 5.45519e-07, No Iterations 9
time step continuity errors : sum local = 2.75533e-10, global = 7.27583e-11
PIMPLE: Iteration 2
DILUPBiCGStab:  Solving for Ux, Initial residual = 6.5033e-05, Final residual = 4.24113e-07, No Iterations 1
DILUPBiCGStab:  Solving for Uy, Initial residual = 7.26771e-05, Final residual = 6.10877e-07, No Iterations 1
DILUPBiCGStab:  Solving for Uz, Initial residual = 0.000268749, Final residual = 8.15659e-07, No Iterations 1
GAMG:  Solving for p, Initial residual = 0.00400191, Final residual = 5.08524e-07, No Iterations 8
time step continuity errors : sum local = 2.48348e-10, global = -6.29087e-11, cumulative = 1.41525e-08
ExecutionTime = 0.355374 s  ClockTime = 1 s

Courant Number mean: 0.0589153 max: 0.50408
deltaT = 4.53515e-06
Time = 0.000109297s

PIMPLE: Iteration 1
DICPCG:  Solving for cellMotionUx, Initial residual = 2.92641e-06, Final residual = 5.59319e-09, No Iterations 10
GAMG:  Solving for pcorr, Initial residual = 1, Final residual = 0.00814019, No Iterations 5
DILUPBiCGStab:  Solving for Ux, Initial residual = 0.00299567, Final residual = 8.49526e-06, No Iterations 1
DILUPBiCGStab:  Solving for Uy, Initial residual = 0.0025654, Final residual = 1.23637e-05, No Iterations 1
DILUPBiCGStab:  Solving for Uz, Initial residual = 0.0153757, Final residual = 1.38915e-05, No Iterations 1
GAMG:  Solving for p, Initial residual = 0.00733417, Final residual = 5.42741e-07, No Iterations 7
time step continuity errors : sum local = 2.43328e-10, global = -4.99548e-11
PIMPLE: Iteration 2
DILUPBiCGStab:  Solving for Ux, Initial residual = 5.35964e-05, Final residual = 2.71761e-07, No Iterations 1
DILUPBiCGStab:  Solving for Uy, Initial residual = 5.37939e-05, Final residual = 3.42187e-07, No Iterations 1
DILUPBiCGStab:  Solving for Uz, Initial residual = 0.000243344, Final residual = 6.99756e-07, No Iterations 1
GAMG:  Solving for p, Initial residual = 0.00371877, Final residual = 7.34556e-07, No Iterations 7
time step continuity errors : sum local = 3.30274e-10, global = -7.17755e-11, cumulative = 1.40807e-08
ExecutionTime = 0.367063 s  ClockTime = 1 s

Courant Number mean: 0.0561578 max: 0.483756
deltaT = 4.53515e-06
Time = 0.000113832s

PIMPLE: Iteration 1
DICPCG:  Solving for cellMotionUx, Initial residual = 2.77962e-06, Final residual = 5.56613e-09, No Iterations 10
GAMG:  Solving for pcorr, Initial residual = 1, Final residual = 0.00815077, No Iterations 5
DILUPBiCGStab:  Solving for Ux, Initial residual = 0.0029605, Final residual = 8.32349e-06, No Iterations 1
DILUPBiCGStab:  Solving for Uy, Initial residual = 0.00255098, Final residual = 1.18784e-05, No Iterations 1
DILUPBiCGStab:  Solving for Uz, Initial residual = 0.0146231, Final residual = 1.38681e-05, No Iterations 1
GAMG:  Solving for p, Initial residual = 0.00622361, Final residual = 4.33068e-07, No Iterations 8
time step continuity errors : sum local = 1.94306e-10, global = 4.76214e-11
PIMPLE: Iteration 2
DILUPBiCGStab:  Solving for Ux, Initial residual = 4.94605e-05, Final residual = 2.17683e-07, No Iterations 1
DILUPBiCGStab:  Solving for Uy, Initial residual = 4.99851e-05, Final residual = 3.10442e-07, No Iterations 1
DILUPBiCGStab:  Solving for Uz, Initial residual = 0.000233566, Final residual = 6.97992e-07, No Iterations 1
GAMG:  Solving for p, Initial residual = 0.00336009, Final residual = 4.49187e-07, No Iterations 8
time step continuity errors : sum local = 1.98786e-10, global = -5.37518e-11, cumulative = 1.40269e-08
ExecutionTime = 0.378913 s  ClockTime = 1 s

Courant Number mean: 0.0562043 max: 0.487089
deltaT = 4.53515e-06
Time = 0.000118367s

PIMPLE: Iteration 1
DICPCG:  Solving for cellMotionUx, Initial residual = 2.77118e-06, Final residual = 5.65871e-09, No Iterations 10
GAMG:  Solving for pcorr, Initial residual = 1, Final residual = 0.00816239, No Iterations 5
DILUPBiCGStab:  Solving for Ux, Initial residual = 0.00291095, Final residual = 8.1324e-06, No Iterations 1
DILUPBiCGStab:  Solving for Uy, Initial residual = 0.00251069, Final residual = 1.14631e-05, No Iterations 1
DILUPBiCGStab:  Solving for Uz, Initial residual = 0.0137422, Final residual = 1.36993e-05, No Iterations 1
GAMG:  Solving for p, Initial residual = 0.00564167, Final residual = 4.06976e-07, No Iterations 8
time step continuity errors : sum local = 1.80115e-10, global = 5.03104e-11
PIMPLE: Iteration 2
DILUPBiCGStab:  Solving for Ux, Initial residual = 4.866e-05, Final residual = 2.14953e-07, No Iterations 1
DILUPBiCGStab:  Solving for Uy, Initial residual = 4.85996e-05, Final residual = 2.98003e-07, No Iterations 1
DILUPBiCGStab:  Solving for Uz, Initial residual = 0.000226027, Final residual = 6.29548e-07, No Iterations 1
GAMG:  Solving for p, Initial residual = 0.00326125, Final residual = 4.29411e-07, No Iterations 8
time step continuity errors : sum local = 1.87917e-10, global = -5.09474e-11, cumulative = 1.3976e-08
ExecutionTime = 0.389718 s  ClockTime = 1 s

Courant Number mean: 0.0562494 max: 0.490108
deltaT = 4.53515e-06
Time = 0.000122902s

PIMPLE: Iteration 1
DICPCG:  Solving for cellMotionUx, Initial residual = 2.76082e-06, Final residual = 5.77136e-09, No Iterations 10
GAMG:  Solving for pcorr, Initial residual = 1, Final residual = 0.00817446, No Iterations 5
DILUPBiCGStab:  Solving for Ux, Initial residual = 0.00286559, Final residual = 7.96465e-06, No Iterations 1
DILUPBiCGStab:  Solving for Uy, Initial residual = 0.00248361, Final residual = 1.10553e-05, No Iterations 1
DILUPBiCGStab:  Solving for Uz, Initial residual = 0.0141019, Final residual = 1.45239e-05, No Iterations 1
GAMG:  Solving for p, Initial residual = 0.00596491, Final residual = 4.09175e-07, No Iterations 8
time step continuity errors : sum local = 1.7898e-10, global = 4.72395e-11
PIMPLE: Iteration 2
DILUPBiCGStab:  Solving for Ux, Initial residual = 4.81673e-05, Final residual = 2.1321e-07, No Iterations 1
DILUPBiCGStab:  Solving for Uy, Initial residual = 4.82127e-05, Final residual = 2.93956e-07, No Iterations 1
DILUPBiCGStab:  Solving for Uz, Initial residual = 0.00022125, Final residual = 5.12564e-07, No Iterations 1
GAMG:  Solving for p, Initial residual = 0.00343019, Final residual = 9.59651e-07, No Iterations 7
time step continuity errors : sum local = 4.15446e-10, global = -9.34274e-11, cumulative = 1.38826e-08
ExecutionTime = 0.400891 s  ClockTime = 1 s

Courant Number mean: 0.0562929 max: 0.492869
deltaT = 4.53515e-06
Time = 0.000127438s

PIMPLE: Iteration 1
DICPCG:  Solving for cellMotionUx, Initial residual = 2.74865e-06, Final residual = 5.87224e-09, No Iterations 10
GAMG:  Solving for pcorr, Initial residual = 1, Final residual = 0.00818628, No Iterations 5
DILUPBiCGStab:  Solving for Ux, Initial residual = 0.00282394, Final residual = 7.82465e-06, No Iterations 1
DILUPBiCGStab:  Solving for Uy, Initial residual = 0.00246146, Final residual = 1.07748e-05, No Iterations 1
DILUPBiCGStab:  Solving for Uz, Initial residual = 0.013783, Final residual = 1.37006e-05, No Iterations 1
GAMG:  Solving for p, Initial residual = 0.00495468, Final residual = 8.79213e-07, No Iterations 7
time step continuity errors : sum local = 3.80206e-10, global = 9.4053e-11
PIMPLE: Iteration 2
DILUPBiCGStab:  Solving for Ux, Initial residual = 4.70183e-05, Final residual = 2.09959e-07, No Iterations 1
DILUPBiCGStab:  Solving for Uy, Initial residual = 4.64295e-05, Final residual = 2.81281e-07, No Iterations 1
DILUPBiCGStab:  Solving for Uz, Initial residual = 0.000222894, Final residual = 9.0027e-07, No Iterations 1
GAMG:  Solving for p, Initial residual = 0.00330444, Final residual = 9.70092e-07, No Iterations 7
time step continuity errors : sum local = 4.1547e-10, global = -9.49842e-11, cumulative = 1.37876e-08
ExecutionTime = 0.411607 s  ClockTime = 1 s

Courant Number mean: 0.0563351 max: 0.495365
deltaT = 4.53515e-06
Time = 0.000131973s

PIMPLE: Iteration 1
DICPCG:  Solving for cellMotionUx, Initial residual = 2.73481e-06, Final residual = 5.97491e-09, No Iterations 10
GAMG:  Solving for pcorr, Initial residual = 1, Final residual = 0.0178271, No Iterations 4
DILUPBiCGStab:  Solving for Ux, Initial residual = 0.00278489, Final residual = 7.66769e-06, No Iterations 1
DILUPBiCGStab:  Solving for Uy, Initial residual = 0.00243846, Final residual = 1.043e-05, No Iterations 1
DILUPBiCGStab:  Solving for Uz, Initial residual = 0.0141562, Final residual = 1.36241e-05, No Iterations 1
GAMG:  Solving for p, Initial residual = 0.00500331, Final residual = 9.50086e-07, No Iterations 6
time step continuity errors : sum local = 4.06513e-10, global = 5.06117e-11
PIMPLE: Iteration 2
DILUPBiCGStab:  Solving for Ux, Initial residual = 4.50764e-05, Final residual = 1.887e-07, No Iterations 1
DILUPBiCGStab:  Solving for Uy, Initial residual = 4.42884e-05, Final residual = 2.66006e-07, No Iterations 1
DILUPBiCGStab:  Solving for Uz, Initial residual = 0.000216805, Final residual = 5.75268e-07, No Iterations 1
GAMG:  Solving for p, Initial residual = 0.00304725, Final residual = 6.24087e-07, No Iterations 7
time step continuity errors : sum local = 2.65444e-10, global = -5.47137e-11, cumulative = 1.37329e-08
ExecutionTime = 0.422309 s  ClockTime = 1 s

Courant Number mean: 0.0563771 max: 0.497732
deltaT = 4.53515e-06
Time = 0.000136508s

PIMPLE: Iteration 1
DICPCG:  Solving for cellMotionUx, Initial residual = 2.71946e-06, Final residual = 6.07577e-09, No Iterations 10
GAMG:  Solving for pcorr, Initial residual = 1, Final residual = 0.0178315, No Iterations 4
DILUPBiCGStab:  Solving for Ux, Initial residual = 0.00274928, Final residual = 7.55559e-06, No Iterations 1
DILUPBiCGStab:  Solving for Uy, Initial residual = 0.00241647, Final residual = 1.02616e-05, No Iterations 1
DILUPBiCGStab:  Solving for Uz, Initial residual = 0.0135575, Final residual = 1.37256e-05, No Iterations 1
GAMG:  Solving for p, Initial residual = 0.00531398, Final residual = 8.70297e-07, No Iterations 7
time step continuity errors : sum local = 3.6939e-10, global = 4.59529e-11
PIMPLE: Iteration 2
DILUPBiCGStab:  Solving for Ux, Initial residual = 4.55874e-05, Final residual = 1.94429e-07, No Iterations 1
DILUPBiCGStab:  Solving for Uy, Initial residual = 4.30397e-05, Final residual = 2.57415e-07, No Iterations 1
DILUPBiCGStab:  Solving for Uz, Initial residual = 0.00020632, Final residual = 7.09628e-07, No Iterations 1
GAMG:  Solving for p, Initial residual = 0.00307156, Final residual = 6.55756e-07, No Iterations 7
time step continuity errors : sum local = 2.7635e-10, global = -5.94421e-11, cumulative = 1.36734e-08
ExecutionTime = 0.434136 s  ClockTime = 1 s

Courant Number mean: 0.0564207 max: 0.49991
deltaT = 4.53515e-06
Time = 0.000141043s

PIMPLE: Iteration 1
DICPCG:  Solving for cellMotionUx, Initial residual = 2.70281e-06, Final residual = 6.17723e-09, No Iterations 10
GAMG:  Solving for pcorr, Initial residual = 1, Final residual = 0.0178342, No Iterations 4
DILUPBiCGStab:  Solving for Ux, Initial residual = 0.00271317, Final residual = 7.4348e-06, No Iterations 1
DILUPBiCGStab:  Solving for Uy, Initial residual = 0.00239614, Final residual = 1.00439e-05, No Iterations 1
DILUPBiCGStab:  Solving for Uz, Initial residual = 0.0135901, Final residual = 1.38713e-05, No Iterations 1
GAMG:  Solving for p, Initial residual = 0.00601176, Final residual = 9.56176e-07, No Iterations 7
time step continuity errors : sum local = 4.02257e-10, global = 6.00268e-11
PIMPLE: Iteration 2
DILUPBiCGStab:  Solving for Ux, Initial residual = 4.37289e-05, Final residual = 1.89169e-07, No Iterations 1
DILUPBiCGStab:  Solving for Uy, Initial residual = 4.0419e-05, Final residual = 2.39641e-07, No Iterations 1
DILUPBiCGStab:  Solving for Uz, Initial residual = 0.000205877, Final residual = 7.07207e-07, No Iterations 1
GAMG:  Solving for p, Initial residual = 0.00304235, Final residual = 8.34469e-07, No Iterations 7
time step continuity errors : sum local = 3.47157e-10, global = -5.19787e-11, cumulative = 1.36214e-08
ExecutionTime = 0.445627 s  ClockTime = 1 s

Courant Number mean: 0.0564627 max: 0.501888
deltaT = 4.21121e-06
Time = 0.000145254s

PIMPLE: Iteration 1
DICPCG:  Solving for cellMotionUx, Initial residual = 2.68496e-06, Final residual = 6.28057e-09, No Iterations 10
GAMG:  Solving for pcorr, Initial residual = 1, Final residual = 0.0178164, No Iterations 4
DILUPBiCGStab:  Solving for Ux, Initial residual = 0.00248723, Final residual = 5.96443e-06, No Iterations 1
DILUPBiCGStab:  Solving for Uy, Initial residual = 0.0021925, Final residual = 8.0425e-06, No Iterations 1
DILUPBiCGStab:  Solving for Uz, Initial residual = 0.0118321, Final residual = 1.14236e-05, No Iterations 1
GAMG:  Solving for p, Initial residual = 0.00654763, Final residual = 4.18672e-07, No Iterations 8
time step continuity errors : sum local = 1.52118e-10, global = 2.87373e-11
PIMPLE: Iteration 2
DILUPBiCGStab:  Solving for Ux, Initial residual = 3.87419e-05, Final residual = 1.69789e-07, No Iterations 1
DILUPBiCGStab:  Solving for Uy, Initial residual = 3.6779e-05, Final residual = 2.28308e-07, No Iterations 1
DILUPBiCGStab:  Solving for Uz, Initial residual = 0.000175566, Final residual = 6.10331e-07, No Iterations 1
GAMG:  Solving for p, Initial residual = 0.00294292, Final residual = 5.17394e-07, No Iterations 7
time step continuity errors : sum local = 1.8809e-10, global = -3.85875e-11, cumulative = 1.35828e-08
ExecutionTime = 0.45633 s  ClockTime = 1 s

Courant Number mean: 0.0524651 max: 0.467484
deltaT = 4.21121e-06
Time = 0.000149466s

PIMPLE: Iteration 1
DICPCG:  Solving for cellMotionUx, Initial residual = 2.47502e-06, Final residual = 6.11688e-09, No Iterations 10
GAMG:  Solving for pcorr, Initial residual = 1, Final residual = 0.017833, No Iterations 4
DILUPBiCGStab:  Solving for Ux, Initial residual = 0.00246772, Final residual = 5.86205e-06, No Iterations 1
DILUPBiCGStab:  Solving for Uy, Initial residual = 0.00218219, Final residual = 7.72523e-06, No Iterations 1
DILUPBiCGStab:  Solving for Uz, Initial residual = 0.0125764, Final residual = 1.15083e-05, No Iterations 1
GAMG:  Solving for p, Initial residual = 0.00636009, Final residual = 6.36267e-07, No Iterations 8
time step continuity errors : sum local = 2.30704e-10, global = 4.27896e-11
PIMPLE: Iteration 2
DILUPBiCGStab:  Solving for Ux, Initial residual = 3.73014e-05, Final residual = 1.45368e-07, No Iterations 1
DILUPBiCGStab:  Solving for Uy, Initial residual = 3.3772e-05, Final residual = 1.77738e-07, No Iterations 1
DILUPBiCGStab:  Solving for Uz, Initial residual = 0.000187094, Final residual = 5.19004e-07, No Iterations 1
GAMG:  Solving for p, Initial residual = 0.00268875, Final residual = 6.1597e-07, No Iterations 7
time step continuity errors : sum local = 2.20603e-10, global = -4.63553e-11, cumulative = 1.35365e-08
ExecutionTime = 0.467048 s  ClockTime = 1 s

Courant Number mean: 0.0525011 max: 0.468869
deltaT = 4.21121e-06
Time = 0.000153677s

PIMPLE: Iteration 1
DICPCG:  Solving for cellMotionUx, Initial residual = 2.45776e-06, Final residual = 6.16772e-09, No Iterations 10
GAMG:  Solving for pcorr, Initial residual = 1, Final residual = 0.0178397, No Iterations 4
DILUPBiCGStab:  Solving for Ux, Initial residual = 0.00243497, Final residual = 5.74892e-06, No Iterations 1
DILUPBiCGStab:  Solving for Uy, Initial residual = 0.00215408, Final residual = 7.6089e-06, No Iterations 1
DILUPBiCGStab:  Solving for Uz, Initial residual = 0.0119403, Final residual = 1.13528e-05, No Iterations 1
GAMG:  Solving for p, Initial residual = 0.00569025, Final residual = 5.7534e-07, No Iterations 8
time step continuity errors : sum local = 2.05638e-10, global = 3.5533e-11
PIMPLE: Iteration 2
DILUPBiCGStab:  Solving for Ux, Initial residual = 3.67191e-05, Final residual = 1.40406e-07, No Iterations 1
DILUPBiCGStab:  Solving for Uy, Initial residual = 3.21684e-05, Final residual = 1.78286e-07, No Iterations 1
DILUPBiCGStab:  Solving for Uz, Initial residual = 0.000173471, Final residual = 4.75856e-07, No Iterations 1
GAMG:  Solving for p, Initial residual = 0.00263023, Final residual = 6.086e-07, No Iterations 7
time step continuity errors : sum local = 2.15058e-10, global = -4.50679e-11, cumulative = 1.34914e-08
ExecutionTime = 0.477782 s  ClockTime = 1 s

Courant Number mean: 0.052537 max: 0.47016
deltaT = 4.21121e-06
Time = 0.000157888s

PIMPLE: Iteration 1
DICPCG:  Solving for cellMotionUx, Initial residual = 2.43968e-06, Final residual = 6.23703e-09, No Iterations 10
GAMG:  Solving for pcorr, Initial residual = 1, Final residual = 0.0178457, No Iterations 4
DILUPBiCGStab:  Solving for Ux, Initial residual = 0.00240468, Final residual = 5.64924e-06, No Iterations 1
DILUPBiCGStab:  Solving for Uy, Initial residual = 0.00212978, Final residual = 7.44705e-06, No Iterations 1
DILUPBiCGStab:  Solving for Uz, Initial residual = 0.0118185, Final residual = 1.18145e-05, No Iterations 1
GAMG:  Solving for p, Initial residual = 0.0060714, Final residual = 8.15357e-07, No Iterations 7
time step continuity errors : sum local = 2.87683e-10, global = 3.73921e-11
PIMPLE: Iteration 2
DILUPBiCGStab:  Solving for Ux, Initial residual = 3.58318e-05, Final residual = 1.37138e-07, No Iterations 1
DILUPBiCGStab:  Solving for Uy, Initial residual = 3.12734e-05, Final residual = 1.72644e-07, No Iterations 1
DILUPBiCGStab:  Solving for Uz, Initial residual = 0.000166486, Final residual = 5.24666e-07, No Iterations 1
GAMG:  Solving for p, Initial residual = 0.00260392, Final residual = 5.54627e-07, No Iterations 7
time step continuity errors : sum local = 1.94205e-10, global = -3.79616e-11, cumulative = 1.34535e-08
ExecutionTime = 0.488263 s  ClockTime = 1 s

Courant Number mean: 0.0525721 max: 0.471357
deltaT = 4.21121e-06
Time = 0.000162099s

PIMPLE: Iteration 1
DICPCG:  Solving for cellMotionUx, Initial residual = 2.42088e-06, Final residual = 6.31932e-09, No Iterations 10
GAMG:  Solving for pcorr, Initial residual = 1, Final residual = 0.0178517, No Iterations 4
DILUPBiCGStab:  Solving for Ux, Initial residual = 0.0023791, Final residual = 5.56883e-06, No Iterations 1
DILUPBiCGStab:  Solving for Uy, Initial residual = 0.00210944, Final residual = 7.34505e-06, No Iterations 1
DILUPBiCGStab:  Solving for Uz, Initial residual = 0.0118438, Final residual = 1.10338e-05, No Iterations 1
GAMG:  Solving for p, Initial residual = 0.006624, Final residual = 7.20832e-07, No Iterations 7
time step continuity errors : sum local = 2.51873e-10, global = -3.69254e-11
PIMPLE: Iteration 2
DILUPBiCGStab:  Solving for Ux, Initial residual = 3.61774e-05, Final residual = 1.34955e-07, No Iterations 1
DILUPBiCGStab:  Solving for Uy, Initial residual = 3.30194e-05, Final residual = 1.80478e-07, No Iterations 1
DILUPBiCGStab:  Solving for Uz, Initial residual = 0.00018131, Final residual = 5.34313e-07, No Iterations 1
GAMG:  Solving for p, Initial residual = 0.00269224, Final residual = 3.9041e-07, No Iterations 7
time step continuity errors : sum local = 1.36596e-10, global = -2.00198e-11, cumulative = 1.34334e-08
ExecutionTime = 0.498729 s  ClockTime = 1 s

Courant Number mean: 0.0526073 max: 0.472569
deltaT = 4.21121e-06
Time = 0.00016631s

PIMPLE: Iteration 1
DICPCG:  Solving for cellMotionUx, Initial residual = 2.40147e-06, Final residual = 6.41297e-09, No Iterations 10
GAMG:  Solving for pcorr, Initial residual = 1, Final residual = 0.0180166, No Iterations 4
DILUPBiCGStab:  Solving for Ux, Initial residual = 0.0023619, Final residual = 5.53571e-06, No Iterations 1
DILUPBiCGStab:  Solving for Uy, Initial residual = 0.00210635, Final residual = 7.4073e-06, No Iterations 1
DILUPBiCGStab:  Solving for Uz, Initial residual = 0.0117898, Final residual = 1.16588e-05, No Iterations 1
GAMG:  Solving for p, Initial residual = 0.00461266, Final residual = 5.14183e-07, No Iterations 7
time step continuity errors : sum local = 1.79244e-10, global = 2.77998e-11
PIMPLE: Iteration 2
DILUPBiCGStab:  Solving for Ux, Initial residual = 3.58219e-05, Final residual = 1.38017e-07, No Iterations 1
DILUPBiCGStab:  Solving for Uy, Initial residual = 3.01817e-05, Final residual = 1.62455e-07, No Iterations 1
DILUPBiCGStab:  Solving for Uz, Initial residual = 0.000168784, Final residual = 4.33217e-07, No Iterations 1
GAMG:  Solving for p, Initial residual = 0.00256331, Final residual = 4.26645e-07, No Iterations 7
time step continuity errors : sum local = 1.47709e-10, global = -3.23491e-11, cumulative = 1.34011e-08
ExecutionTime = 0.509284 s  ClockTime = 1 s

Courant Number mean: 0.0526419 max: 0.473687
deltaT = 4.21121e-06
Time = 0.000170522s

PIMPLE: Iteration 1
DICPCG:  Solving for cellMotionUx, Initial residual = 2.38149e-06, Final residual = 6.51657e-09, No Iterations 10
GAMG:  Solving for pcorr, Initial residual = 1, Final residual = 0.0180225, No Iterations 4
DILUPBiCGStab:  Solving for Ux, Initial residual = 0.00234023, Final residual = 5.45911e-06, No Iterations 1
DILUPBiCGStab:  Solving for Uy, Initial residual = 0.00208908, Final residual = 7.32847e-06, No Iterations 1
DILUPBiCGStab:  Solving for Uz, Initial residual = 0.0116731, Final residual = 1.16283e-05, No Iterations 1
GAMG:  Solving for p, Initial residual = 0.00453592, Final residual = 6.17539e-07, No Iterations 7
time step continuity errors : sum local = 2.13381e-10, global = 3.39439e-11
PIMPLE: Iteration 2
DILUPBiCGStab:  Solving for Ux, Initial residual = 3.56978e-05, Final residual = 1.40727e-07, No Iterations 1
DILUPBiCGStab:  Solving for Uy, Initial residual = 2.91843e-05, Final residual = 1.58982e-07, No Iterations 1
DILUPBiCGStab:  Solving for Uz, Initial residual = 0.000167905, Final residual = 5.10875e-07, No Iterations 1
GAMG:  Solving for p, Initial residual = 0.00255682, Final residual = 4.73048e-07, No Iterations 7
time step continuity errors : sum local = 1.62199e-10, global = -3.41513e-11, cumulative = 1.33669e-08
ExecutionTime = 0.520695 s  ClockTime = 1 s

Courant Number mean: 0.0526759 max: 0.4747
deltaT = 4.21121e-06
Time = 0.000174733s

PIMPLE: Iteration 1
DICPCG:  Solving for cellMotionUx, Initial residual = 2.36105e-06, Final residual = 6.63075e-09, No Iterations 10
GAMG:  Solving for pcorr, Initial residual = 1, Final residual = 0.0180298, No Iterations 4
DILUPBiCGStab:  Solving for Ux, Initial residual = 0.00231857, Final residual = 5.37436e-06, No Iterations 1
DILUPBiCGStab:  Solving for Uy, Initial residual = 0.00207038, Final residual = 7.20459e-06, No Iterations 1
DILUPBiCGStab:  Solving for Uz, Initial residual = 0.0120636, Final residual = 1.12105e-05, No Iterations 1
GAMG:  Solving for p, Initial residual = 0.00424469, Final residual = 4.96805e-07, No Iterations 7
time step continuity errors : sum local = 1.70123e-10, global = 2.74409e-11
PIMPLE: Iteration 2
DILUPBiCGStab:  Solving for Ux, Initial residual = 3.55292e-05, Final residual = 1.4033e-07, No Iterations 1
DILUPBiCGStab:  Solving for Uy, Initial residual = 2.84946e-05, Final residual = 1.56748e-07, No Iterations 1
DILUPBiCGStab:  Solving for Uz, Initial residual = 0.000175391, Final residual = 5.56506e-07, No Iterations 1
GAMG:  Solving for p, Initial residual = 0.00254146, Final residual = 4.63224e-07, No Iterations 7
time step continuity errors : sum local = 1.57555e-10, global = -3.32701e-11, cumulative = 1.33337e-08
ExecutionTime = 0.532216 s  ClockTime = 1 s

Courant Number mean: 0.0527098 max: 0.475611
deltaT = 4.21121e-06
Time = 0.000178944s

PIMPLE: Iteration 1
DICPCG:  Solving for cellMotionUx, Initial residual = 2.34026e-06, Final residual = 6.75761e-09, No Iterations 10
GAMG:  Solving for pcorr, Initial residual = 1, Final residual = 0.0180381, No Iterations 4
DILUPBiCGStab:  Solving for Ux, Initial residual = 0.00229769, Final residual = 5.29221e-06, No Iterations 1
DILUPBiCGStab:  Solving for Uy, Initial residual = 0.00205378, Final residual = 7.0738e-06, No Iterations 1
DILUPBiCGStab:  Solving for Uz, Initial residual = 0.0113457, Final residual = 1.14605e-05, No Iterations 1
GAMG:  Solving for p, Initial residual = 0.0041858, Final residual = 9.3191e-07, No Iterations 6
time step continuity errors : sum local = 3.16577e-10, global = 6.8834e-11
PIMPLE: Iteration 2
DILUPBiCGStab:  Solving for Ux, Initial residual = 3.52312e-05, Final residual = 1.39478e-07, No Iterations 1
DILUPBiCGStab:  Solving for Uy, Initial residual = 2.79033e-05, Final residual = 1.54627e-07, No Iterations 1
DILUPBiCGStab:  Solving for Uz, Initial residual = 0.000170221, Final residual = 3.83451e-07, No Iterations 1
GAMG:  Solving for p, Initial residual = 0.00252526, Final residual = 4.47422e-07, No Iterations 7
time step continuity errors : sum local = 1.51046e-10, global = -3.21602e-11, cumulative = 1.33015e-08
ExecutionTime = 0.543091 s  ClockTime = 1 s

Courant Number mean: 0.0527447 max: 0.476425
deltaT = 4.21121e-06
Time = 0.000183155s

PIMPLE: Iteration 1
DICPCG:  Solving for cellMotionUx, Initial residual = 2.31906e-06, Final residual = 6.89607e-09, No Iterations 10
GAMG:  Solving for pcorr, Initial residual = 1, Final residual = 0.0175679, No Iterations 4
DILUPBiCGStab:  Solving for Ux, Initial residual = 0.00227759, Final residual = 5.22341e-06, No Iterations 1
DILUPBiCGStab:  Solving for Uy, Initial residual = 0.00204105, Final residual = 6.95082e-06, No Iterations 1
DILUPBiCGStab:  Solving for Uz, Initial residual = 0.0109992, Final residual = 1.16496e-05, No Iterations 1
GAMG:  Solving for p, Initial residual = 0.0041663, Final residual = 5.4343e-07, No Iterations 7
time step continuity errors : sum local = 1.83194e-10, global = 2.6972e-11
PIMPLE: Iteration 2
DILUPBiCGStab:  Solving for Ux, Initial residual = 3.51038e-05, Final residual = 1.39639e-07, No Iterations 1
DILUPBiCGStab:  Solving for Uy, Initial residual = 2.75976e-05, Final residual = 1.54093e-07, No Iterations 1
DILUPBiCGStab:  Solving for Uz, Initial residual = 0.000174169, Final residual = 6.6593e-07, No Iterations 1
GAMG:  Solving for p, Initial residual = 0.00255893, Final residual = 4.67149e-07, No Iterations 7
time step continuity errors : sum local = 1.56563e-10, global = -2.37209e-11, cumulative = 1.32778e-08
ExecutionTime = 0.55368 s  ClockTime = 1 s

Courant Number mean: 0.0527786 max: 0.477148
deltaT = 4.21121e-06
Time = 0.000187366s

PIMPLE: Iteration 1
DICPCG:  Solving for cellMotionUx, Initial residual = 2.29755e-06, Final residual = 7.04417e-09, No Iterations 10
GAMG:  Solving for pcorr, Initial residual = 1, Final residual = 0.0197172, No Iterations 4
DILUPBiCGStab:  Solving for Ux, Initial residual = 0.00225843, Final residual = 5.16449e-06, No Iterations 1
DILUPBiCGStab:  Solving for Uy, Initial residual = 0.00202953, Final residual = 6.85706e-06, No Iterations 1
DILUPBiCGStab:  Solving for Uz, Initial residual = 0.0115844, Final residual = 1.14705e-05, No Iterations 1
GAMG:  Solving for p, Initial residual = 0.00401301, Final residual = 7.65976e-07, No Iterations 7
time step continuity errors : sum local = 2.5636e-10, global = 4.3064e-11
PIMPLE: Iteration 2
DILUPBiCGStab:  Solving for Ux, Initial residual = 3.47869e-05, Final residual = 1.38584e-07, No Iterations 1
DILUPBiCGStab:  Solving for Uy, Initial residual = 2.70122e-05, Final residual = 1.51614e-07, No Iterations 1
DILUPBiCGStab:  Solving for Uz, Initial residual = 0.000165629, Final residual = 4.65326e-07, No Iterations 1
GAMG:  Solving for p, Initial residual = 0.00250663, Final residual = 7.65835e-07, No Iterations 7
time step continuity errors : sum local = 2.54897e-10, global = -2.90644e-11, cumulative = 1.32487e-08
ExecutionTime = 0.564972 s  ClockTime = 1 s

Courant Number mean: 0.0528129 max: 0.477787
deltaT = 4.21121e-06
Time = 0.000191578s

PIMPLE: Iteration 1
DICPCG:  Solving for cellMotionUx, Initial residual = 2.27572e-06, Final residual = 7.20617e-09, No Iterations 10
GAMG:  Solving for pcorr, Initial residual = 1, Final residual = 0.019341, No Iterations 4
DILUPBiCGStab:  Solving for Ux, Initial residual = 0.00223927, Final residual = 5.10026e-06, No Iterations 1
DILUPBiCGStab:  Solving for Uy, Initial residual = 0.00201938, Final residual = 6.76446e-06, No Iterations 1
DILUPBiCGStab:  Solving for Uz, Initial residual = 0.0116919, Final residual = 1.16109e-05, No Iterations 1
GAMG:  Solving for p, Initial residual = 0.00455682, Final residual = 7.79605e-07, No Iterations 7
time step continuity errors : sum local = 2.59104e-10, global = 3.60768e-11
PIMPLE: Iteration 2
DILUPBiCGStab:  Solving for Ux, Initial residual = 3.44273e-05, Final residual = 1.37181e-07, No Iterations 1
DILUPBiCGStab:  Solving for Uy, Initial residual = 2.63276e-05, Final residual = 1.47187e-07, No Iterations 1
DILUPBiCGStab:  Solving for Uz, Initial residual = 0.000173263, Final residual = 5.27161e-07, No Iterations 1
GAMG:  Solving for p, Initial residual = 0.00241667, Final residual = 6.68951e-07, No Iterations 7
time step continuity errors : sum local = 2.21165e-10, global = -3.40392e-11, cumulative = 1.32147e-08
ExecutionTime = 0.57551 s  ClockTime = 1 s

Courant Number mean: 0.0528463 max: 0.478353
deltaT = 4.21121e-06
Time = 0.000195789s

PIMPLE: Iteration 1
DICPCG:  Solving for cellMotionUx, Initial residual = 2.25364e-06, Final residual = 7.37867e-09, No Iterations 10
GAMG:  Solving for pcorr, Initial residual = 1, Final residual = 0.0193402, No Iterations 4
DILUPBiCGStab:  Solving for Ux, Initial residual = 0.00222012, Final residual = 5.03154e-06, No Iterations 1
DILUPBiCGStab:  Solving for Uy, Initial residual = 0.0020111, Final residual = 6.66522e-06, No Iterations 1
DILUPBiCGStab:  Solving for Uz, Initial residual = 0.0109859, Final residual = 1.1109e-05, No Iterations 1
GAMG:  Solving for p, Initial residual = 0.00463412, Final residual = 9.88607e-07, No Iterations 7
time step continuity errors : sum local = 3.26297e-10, global = 3.59415e-11
PIMPLE: Iteration 2
DILUPBiCGStab:  Solving for Ux, Initial residual = 3.48253e-05, Final residual = 1.40623e-07, No Iterations 1
DILUPBiCGStab:  Solving for Uy, Initial residual = 2.69064e-05, Final residual = 1.56485e-07, No Iterations 1
DILUPBiCGStab:  Solving for Uz, Initial residual = 0.000168213, Final residual = 4.81323e-07, No Iterations 1
GAMG:  Solving for p, Initial residual = 0.00265925, Final residual = 7.212e-07, No Iterations 7
time step continuity errors : sum local = 2.36839e-10, global = -3.15878e-11, cumulative = 1.31831e-08
ExecutionTime = 0.586025 s  ClockTime = 1 s

Courant Number mean: 0.0528792 max: 0.478833
deltaT = 4.21121e-06
Time = 0.0002s

PIMPLE: Iteration 1
DICPCG:  Solving for cellMotionUx, Initial residual = 2.23132e-06, Final residual = 7.56142e-09, No Iterations 10
GAMG:  Solving for pcorr, Initial residual = 1, Final residual = 0.0193397, No Iterations 4
DILUPBiCGStab:  Solving for Ux, Initial residual = 0.00220294, Final residual = 4.96233e-06, No Iterations 1
DILUPBiCGStab:  Solving for Uy, Initial residual = 0.00200392, Final residual = 6.57047e-06, No Iterations 1
DILUPBiCGStab:  Solving for Uz, Initial residual = 0.0111157, Final residual = 1.08445e-05, No Iterations 1
GAMG:  Solving for p, Initial residual = 0.00551608, Final residual = 3.59508e-07, No Iterations 7
time step continuity errors : sum local = 1.17926e-10, global = 1.14678e-11
PIMPLE: Iteration 2
DILUPBiCGStab:  Solving for Ux, Initial residual = 3.28805e-05, Final residual = 1.33596e-07, No Iterations 1
DILUPBiCGStab:  Solving for Uy, Initial residual = 2.60767e-05, Final residual = 1.46484e-07, No Iterations 1
DILUPBiCGStab:  Solving for Uz, Initial residual = 0.000174567, Final residual = 5.67568e-07, No Iterations 1
GAMG:  Solving for p, Initial residual = 0.0024931, Final residual = 6.31173e-07, No Iterations 7
time step continuity errors : sum local = 2.0607e-10, global = -2.4648e-11, cumulative = 1.31584e-08
ExecutionTime = 0.608885 s  ClockTime = 1 s

Courant Number mean: 0.0529116 max: 0.479274
deltaT = 4.34783e-06
Time = 0.000204348s

PIMPLE: Iteration 1
DICPCG:  Solving for cellMotionUx, Initial residual = 2.20882e-06, Final residual = 7.75608e-09, No Iterations 10
GAMG:  Solving for pcorr, Initial residual = 1, Final residual = 0.0196894, No Iterations 4
DILUPBiCGStab:  Solving for Ux, Initial residual = 0.00225933, Final residual = 5.34629e-06, No Iterations 1
DILUPBiCGStab:  Solving for Uy, Initial residual = 0.00205424, Final residual = 7.16369e-06, No Iterations 1
DILUPBiCGStab:  Solving for Uz, Initial residual = 0.0112705, Final residual = 1.22203e-05, No Iterations 1
GAMG:  Solving for p, Initial residual = 0.00589324, Final residual = 5.20007e-07, No Iterations 7
time step continuity errors : sum local = 1.79706e-10, global = 3.45781e-11
PIMPLE: Iteration 2
DILUPBiCGStab:  Solving for Ux, Initial residual = 3.6162e-05, Final residual = 1.61223e-07, No Iterations 1
DILUPBiCGStab:  Solving for Uy, Initial residual = 2.73112e-05, Final residual = 1.63669e-07, No Iterations 1
DILUPBiCGStab:  Solving for Uz, Initial residual = 0.000175544, Final residual = 5.31374e-07, No Iterations 1
GAMG:  Solving for p, Initial residual = 0.00251509, Final residual = 3.83667e-07, No Iterations 8
time step continuity errors : sum local = 1.31523e-10, global = -4.75159e-11, cumulative = 1.31109e-08
ExecutionTime = 0.625675 s  ClockTime = 1 s

Courant Number mean: 0.054662 max: 0.495261
deltaT = 4.34783e-06
Time = 0.000208696s

PIMPLE: Iteration 1
DICPCG:  Solving for cellMotionUx, Initial residual = 2.25711e-06, Final residual = 8.01409e-09, No Iterations 10
GAMG:  Solving for pcorr, Initial residual = 1, Final residual = 0.0197137, No Iterations 4
DILUPBiCGStab:  Solving for Ux, Initial residual = 0.00224076, Final residual = 5.29911e-06, No Iterations 1
DILUPBiCGStab:  Solving for Uy, Initial residual = 0.0020405, Final residual = 7.14169e-06, No Iterations 1
DILUPBiCGStab:  Solving for Uz, Initial residual = 0.0111194, Final residual = 1.15746e-05, No Iterations 1
GAMG:  Solving for p, Initial residual = 0.00405548, Final residual = 9.34349e-07, No Iterations 6
time step continuity errors : sum local = 3.19945e-10, global = 1.06283e-10
PIMPLE: Iteration 2
DILUPBiCGStab:  Solving for Ux, Initial residual = 3.55947e-05, Final residual = 1.6095e-07, No Iterations 1
DILUPBiCGStab:  Solving for Uy, Initial residual = 2.70571e-05, Final residual = 1.69371e-07, No Iterations 1
DILUPBiCGStab:  Solving for Uz, Initial residual = 0.000172899, Final residual = 4.99592e-07, No Iterations 1
GAMG:  Solving for p, Initial residual = 0.00257649, Final residual = 7.87009e-07, No Iterations 7
time step continuity errors : sum local = 2.68474e-10, global = -6.63707e-11, cumulative = 1.30446e-08
ExecutionTime = 0.636129 s  ClockTime = 1 s

Courant Number mean: 0.0546951 max: 0.495622
deltaT = 4.34783e-06
Time = 0.000213043s

PIMPLE: Iteration 1
DICPCG:  Solving for cellMotionUx, Initial residual = 2.23284e-06, Final residual = 8.2916e-09, No Iterations 10
GAMG:  Solving for pcorr, Initial residual = 1, Final residual = 0.0197386, No Iterations 4
DILUPBiCGStab:  Solving for Ux, Initial residual = 0.00222586, Final residual = 5.22308e-06, No Iterations 1
DILUPBiCGStab:  Solving for Uy, Initial residual = 0.00203411, Final residual = 7.08044e-06, No Iterations 1
DILUPBiCGStab:  Solving for Uz, Initial residual = 0.0113442, Final residual = 1.23319e-05, No Iterations 1
GAMG:  Solving for p, Initial residual = 0.00455419, Final residual = 8.50409e-07, No Iterations 6
time step continuity errors : sum local = 2.89465e-10, global = 8.7894e-11
PIMPLE: Iteration 2
DILUPBiCGStab:  Solving for Ux, Initial residual = 3.5551e-05, Final residual = 1.598e-07, No Iterations 1
DILUPBiCGStab:  Solving for Uy, Initial residual = 2.71721e-05, Final residual = 1.666e-07, No Iterations 1
DILUPBiCGStab:  Solving for Uz, Initial residual = 0.00018098, Final residual = 5.83891e-07, No Iterations 1
GAMG:  Solving for p, Initial residual = 0.00263986, Final residual = 7.92009e-07, No Iterations 7
time step continuity errors : sum local = 2.68331e-10, global = -6.5082e-11, cumulative = 1.29795e-08
ExecutionTime = 0.647201 s  ClockTime = 1 s

Courant Number mean: 0.054728 max: 0.495919
deltaT = 4.34783e-06
Time = 0.000217391s

PIMPLE: Iteration 1
DICPCG:  Solving for cellMotionUx, Initial residual = 2.20851e-06, Final residual = 8.56773e-09, No Iterations 10
GAMG:  Solving for pcorr, Initial residual = 1, Final residual = 0.0197646, No Iterations 4
DILUPBiCGStab:  Solving for Ux, Initial residual = 0.00221045, Final residual = 5.15757e-06, No Iterations 1
DILUPBiCGStab:  Solving for Uy, Initial residual = 0.0020274, Final residual = 7.05324e-06, No Iterations 1
DILUPBiCGStab:  Solving for Uz, Initial residual = 0.0113384, Final residual = 1.21868e-05, No Iterations 1
GAMG:  Solving for p, Initial residual = 0.00377695, Final residual = 9.60409e-07, No Iterations 6
time step continuity errors : sum local = 3.24851e-10, global = 1.16259e-10
PIMPLE: Iteration 2
DILUPBiCGStab:  Solving for Ux, Initial residual = 3.52931e-05, Final residual = 1.57249e-07, No Iterations 1
DILUPBiCGStab:  Solving for Uy, Initial residual = 2.64708e-05, Final residual = 1.61804e-07, No Iterations 1
DILUPBiCGStab:  Solving for Uz, Initial residual = 0.000175777, Final residual = 4.67968e-07, No Iterations 1
GAMG:  Solving for p, Initial residual = 0.00254331, Final residual = 8.386e-07, No Iterations 7
time step continuity errors : sum local = 2.82453e-10, global = -7.10334e-11, cumulative = 1.29084e-08
ExecutionTime = 0.658077 s  ClockTime = 1 s

Courant Number mean: 0.0547627 max: 0.496157
deltaT = 4.34783e-06
Time = 0.000221739s

PIMPLE: Iteration 1
DICPCG:  Solving for cellMotionUx, Initial residual = 2.18413e-06, Final residual = 8.84516e-09, No Iterations 10
GAMG:  Solving for pcorr, Initial residual = 1, Final residual = 0.00766392, No Iterations 5
DILUPBiCGStab:  Solving for Ux, Initial residual = 0.00219521, Final residual = 5.08553e-06, No Iterations 1
DILUPBiCGStab:  Solving for Uy, Initial residual = 0.00202082, Final residual = 6.981e-06, No Iterations 1
DILUPBiCGStab:  Solving for Uz, Initial residual = 0.0119883, Final residual = 1.2564e-05, No Iterations 1
GAMG:  Solving for p, Initial residual = 0.00383189, Final residual = 8.78697e-07, No Iterations 6
time step continuity errors : sum local = 2.95536e-10, global = 1.34347e-10
PIMPLE: Iteration 2
DILUPBiCGStab:  Solving for Ux, Initial residual = 3.51222e-05, Final residual = 1.55774e-07, No Iterations 1
DILUPBiCGStab:  Solving for Uy, Initial residual = 2.61369e-05, Final residual = 1.59087e-07, No Iterations 1
DILUPBiCGStab:  Solving for Uz, Initial residual = 0.000180474, Final residual = 5.38607e-07, No Iterations 1
GAMG:  Solving for p, Initial residual = 0.00253077, Final residual = 5.34904e-07, No Iterations 6
time step continuity errors : sum local = 1.79178e-10, global = -4.44734e-11, cumulative = 1.2864e-08
ExecutionTime = 0.668891 s  ClockTime = 1 s

Courant Number mean: 0.0547975 max: 0.496345
deltaT = 4.34783e-06
Time = 0.000226087s

PIMPLE: Iteration 1
DICPCG:  Solving for cellMotionUx, Initial residual = 2.15972e-06, Final residual = 9.12962e-09, No Iterations 10
GAMG:  Solving for pcorr, Initial residual = 1, Final residual = 0.00771815, No Iterations 5
DILUPBiCGStab:  Solving for Ux, Initial residual = 0.00218041, Final residual = 5.01291e-06, No Iterations 1
DILUPBiCGStab:  Solving for Uy, Initial residual = 0.00201541, Final residual = 6.9121e-06, No Iterations 1
DILUPBiCGStab:  Solving for Uz, Initial residual = 0.0115183, Final residual = 1.16711e-05, No Iterations 1
GAMG:  Solving for p, Initial residual = 0.00442003, Final residual = 7.13839e-07, No Iterations 6
time step continuity errors : sum local = 2.38821e-10, global = 1.11984e-10
PIMPLE: Iteration 2
DILUPBiCGStab:  Solving for Ux, Initial residual = 3.53614e-05, Final residual = 1.55387e-07, No Iterations 1
DILUPBiCGStab:  Solving for Uy, Initial residual = 2.58638e-05, Final residual = 1.58294e-07, No Iterations 1
DILUPBiCGStab:  Solving for Uz, Initial residual = 0.00017967, Final residual = 5.8237e-07, No Iterations 1
GAMG:  Solving for p, Initial residual = 0.00263593, Final residual = 4.85003e-07, No Iterations 6
time step continuity errors : sum local = 1.61788e-10, global = -3.58655e-11, cumulative = 1.28281e-08
ExecutionTime = 0.679471 s  ClockTime = 1 s

Courant Number mean: 0.0548317 max: 0.49649
deltaT = 4.34783e-06
Time = 0.000230435s

PIMPLE: Iteration 1
DICPCG:  Solving for cellMotionUx, Initial residual = 2.13533e-06, Final residual = 9.42148e-09, No Iterations 10
GAMG:  Solving for pcorr, Initial residual = 1, Final residual = 0.00773317, No Iterations 5
DILUPBiCGStab:  Solving for Ux, Initial residual = 0.00216622, Final residual = 4.94724e-06, No Iterations 1
DILUPBiCGStab:  Solving for Uy, Initial residual = 0.00201321, Final residual = 6.84286e-06, No Iterations 1
DILUPBiCGStab:  Solving for Uz, Initial residual = 0.0116155, Final residual = 1.2362e-05, No Iterations 1
GAMG:  Solving for p, Initial residual = 0.00473133, Final residual = 6.14297e-07, No Iterations 7
time step continuity errors : sum local = 2.04621e-10, global = 9.50023e-11
PIMPLE: Iteration 2
DILUPBiCGStab:  Solving for Ux, Initial residual = 3.45243e-05, Final residual = 1.52937e-07, No Iterations 1
DILUPBiCGStab:  Solving for Uy, Initial residual = 2.58089e-05, Final residual = 1.56842e-07, No Iterations 1
DILUPBiCGStab:  Solving for Uz, Initial residual = 0.000181247, Final residual = 6.19745e-07, No Iterations 1
GAMG:  Solving for p, Initial residual = 0.00251237, Final residual = 4.85232e-07, No Iterations 6
time step continuity errors : sum local = 1.60742e-10, global = -5.01948e-11, cumulative = 1.27779e-08
ExecutionTime = 0.689771 s  ClockTime = 1 s

Courant Number mean: 0.0548652 max: 0.496595
deltaT = 4.34783e-06
Time = 0.000234783s

PIMPLE: Iteration 1
DICPCG:  Solving for cellMotionUx, Initial residual = 2.11097e-06, Final residual = 9.72215e-09, No Iterations 10
GAMG:  Solving for pcorr, Initial residual = 1, Final residual = 0.00774775, No Iterations 5
DILUPBiCGStab:  Solving for Ux, Initial residual = 0.00215172, Final residual = 4.88351e-06, No Iterations 1
DILUPBiCGStab:  Solving for Uy, Initial residual = 0.00200287, Final residual = 6.76919e-06, No Iterations 1
DILUPBiCGStab:  Solving for Uz, Initial residual = 0.0108502, Final residual = 1.17968e-05, No Iterations 1
GAMG:  Solving for p, Initial residual = 0.00469286, Final residual = 5.45164e-07, No Iterations 7
time step continuity errors : sum local = 1.80423e-10, global = 6.98348e-11
PIMPLE: Iteration 2
DILUPBiCGStab:  Solving for Ux, Initial residual = 3.51159e-05, Final residual = 1.5204e-07, No Iterations 1
DILUPBiCGStab:  Solving for Uy, Initial residual = 2.52349e-05, Final residual = 1.53588e-07, No Iterations 1
DILUPBiCGStab:  Solving for Uz, Initial residual = 0.000176097, Final residual = 5.03168e-07, No Iterations 1
GAMG:  Solving for p, Initial residual = 0.00253942, Final residual = 4.84343e-07, No Iterations 6
time step continuity errors : sum local = 1.59668e-10, global = -4.74344e-11, cumulative = 1.27305e-08
ExecutionTime = 0.700217 s  ClockTime = 1 s

Courant Number mean: 0.0548981 max: 0.496664
deltaT = 4.34783e-06
Time = 0.00023913s

PIMPLE: Iteration 1
DICPCG:  Solving for cellMotionUx, Initial residual = 2.0869e-06, Final residual = 5.94652e-09, No Iterations 16
GAMG:  Solving for pcorr, Initial residual = 1, Final residual = 0.00776282, No Iterations 5
DILUPBiCGStab:  Solving for Ux, Initial residual = 0.00213819, Final residual = 4.82963e-06, No Iterations 1
DILUPBiCGStab:  Solving for Uy, Initial residual = 0.00199697, Final residual = 6.67423e-06, No Iterations 1
DILUPBiCGStab:  Solving for Uz, Initial residual = 0.011066, Final residual = 1.18302e-05, No Iterations 1
GAMG:  Solving for p, Initial residual = 0.00457164, Final residual = 6.04274e-07, No Iterations 7
time step continuity errors : sum local = 1.99022e-10, global = 7.04668e-11
PIMPLE: Iteration 2
DILUPBiCGStab:  Solving for Ux, Initial residual = 3.39955e-05, Final residual = 1.50058e-07, No Iterations 1
DILUPBiCGStab:  Solving for Uy, Initial residual = 2.55398e-05, Final residual = 1.55025e-07, No Iterations 1
DILUPBiCGStab:  Solving for Uz, Initial residual = 0.000185844, Final residual = 6.07429e-07, No Iterations 1
GAMG:  Solving for p, Initial residual = 0.00251092, Final residual = 4.26717e-07, No Iterations 6
time step continuity errors : sum local = 1.39935e-10, global = -3.02119e-11, cumulative = 1.27003e-08
ExecutionTime = 0.710994 s  ClockTime = 1 s

Courant Number mean: 0.0549306 max: 0.496712
deltaT = 4.34783e-06
Time = 0.000243478s

PIMPLE: Iteration 1
DICPCG:  Solving for cellMotionUx, Initial residual = 2.06254e-06, Final residual = 4.13468e-09, No Iterations 10
GAMG:  Solving for pcorr, Initial residual = 1, Final residual = 0.00777845, No Iterations 5
DILUPBiCGStab:  Solving for Ux, Initial residual = 0.00212226, Final residual = 4.76974e-06, No Iterations 1
DILUPBiCGStab:  Solving for Uy, Initial residual = 0.0019907, Final residual = 6.63636e-06, No Iterations 1
DILUPBiCGStab:  Solving for Uz, Initial residual = 0.0108607, Final residual = 1.2363e-05, No Iterations 1
GAMG:  Solving for p, Initial residual = 0.00465473, Final residual = 5.5527e-07, No Iterations 7
time step continuity errors : sum local = 1.819e-10, global = 6.02546e-11
PIMPLE: Iteration 2
DILUPBiCGStab:  Solving for Ux, Initial residual = 3.3852e-05, Final residual = 1.49139e-07, No Iterations 1
DILUPBiCGStab:  Solving for Uy, Initial residual = 2.61937e-05, Final residual = 1.59073e-07, No Iterations 1
DILUPBiCGStab:  Solving for Uz, Initial residual = 0.000198938, Final residual = 6.23998e-07, No Iterations 1
GAMG:  Solving for p, Initial residual = 0.0025168, Final residual = 4.57675e-07, No Iterations 6
time step continuity errors : sum local = 1.4947e-10, global = -3.17606e-12, cumulative = 1.26971e-08
ExecutionTime = 0.721684 s  ClockTime = 1 s

Courant Number mean: 0.0549633 max: 0.496746
deltaT = 4.34783e-06
Time = 0.000247826s

PIMPLE: Iteration 1
DICPCG:  Solving for cellMotionUx, Initial residual = 2.03574e-06, Final residual = 5.30565e-09, No Iterations 10
GAMG:  Solving for pcorr, Initial residual = 1, Final residual = 0.00780597, No Iterations 5
DILUPBiCGStab:  Solving for Ux, Initial residual = 0.00210761, Final residual = 4.71079e-06, No Iterations 1
DILUPBiCGStab:  Solving for Uy, Initial residual = 0.00198863, Final residual = 6.61447e-06, No Iterations 1
DILUPBiCGStab:  Solving for Uz, Initial residual = 0.0110638, Final residual = 1.20616e-05, No Iterations 1
[...]
GAMG:  Solving for p, Initial residual = 0.00211424, Final residual = 5.20209e-07, No Iterations 7
time step continuity errors : sum local = 1.33068e-10, global = 2.35753e-11, cumulative = 1.07635e-08
ExecutionTime = 2.82309 s  ClockTime = 3 s

Courant Number mean: 0.0568721 max: 0.494569
deltaT = 4.16667e-06
Time = 0.000945833s

PIMPLE: Iteration 1
DICPCG:  Solving for cellMotionUx, Initial residual = 4.9234e-07, Final residual = 9.73221e-09, No Iterations 15
GAMG:  Solving for pcorr, Initial residual = 1, Final residual = 0.0102816, No Iterations 5
DILUPBiCGStab:  Solving for Ux, Initial residual = 0.00143604, Final residual = 1.36632e-06, No Iterations 1
DILUPBiCGStab:  Solving for Uy, Initial residual = 0.00223646, Final residual = 2.36934e-06, No Iterations 1
DILUPBiCGStab:  Solving for Uz, Initial residual = 0.0123594, Final residual = 1.01536e-05, No Iterations 1
GAMG:  Solving for p, Initial residual = 0.0033388, Final residual = 5.76834e-07, No Iterations 7
time step continuity errors : sum local = 1.47467e-10, global = 2.5818e-11
PIMPLE: Iteration 2
DILUPBiCGStab:  Solving for Ux, Initial residual = 2.48522e-05, Final residual = 3.93304e-08, No Iterations 1
DILUPBiCGStab:  Solving for Uy, Initial residual = 1.85939e-05, Final residual = 4.56748e-08, No Iterations 1
DILUPBiCGStab:  Solving for Uz, Initial residual = 0.000342, Final residual = 8.8511e-07, No Iterations 1
GAMG:  Solving for p, Initial residual = 0.00210517, Final residual = 4.72052e-07, No Iterations 7
time step continuity errors : sum local = 1.20587e-10, global = 1.98135e-11, cumulative = 1.07833e-08
ExecutionTime = 2.8348 s  ClockTime = 3 s

Courant Number mean: 0.0568932 max: 0.494732
deltaT = 4.16667e-06
Time = 0.00095s

PIMPLE: Iteration 1
DICPCG:  Solving for cellMotionUx, Initial residual = 4.94606e-07, Final residual = 5.04545e-09, No Iterations 9
GAMG:  Solving for pcorr, Initial residual = 1, Final residual = 0.0102556, No Iterations 5
DILUPBiCGStab:  Solving for Ux, Initial residual = 0.00143397, Final residual = 1.36259e-06, No Iterations 1
DILUPBiCGStab:  Solving for Uy, Initial residual = 0.0022403, Final residual = 2.36456e-06, No Iterations 1
DILUPBiCGStab:  Solving for Uz, Initial residual = 0.0122565, Final residual = 1.08953e-05, No Iterations 1
GAMG:  Solving for p, Initial residual = 0.00298884, Final residual = 4.34649e-07, No Iterations 7
time step continuity errors : sum local = 1.11005e-10, global = 1.62468e-11
PIMPLE: Iteration 2
DILUPBiCGStab:  Solving for Ux, Initial residual = 2.48279e-05, Final residual = 3.90384e-08, No Iterations 1
DILUPBiCGStab:  Solving for Uy, Initial residual = 1.84439e-05, Final residual = 4.52969e-08, No Iterations 1
DILUPBiCGStab:  Solving for Uz, Initial residual = 0.000324105, Final residual = 8.68171e-07, No Iterations 1
GAMG:  Solving for p, Initial residual = 0.00212703, Final residual = 4.4408e-07, No Iterations 7
time step continuity errors : sum local = 1.13406e-10, global = 1.72743e-11, cumulative = 1.08006e-08
ExecutionTime = 2.84612 s  ClockTime = 3 s

Courant Number mean: 0.0569139 max: 0.494896
deltaT = 4.16667e-06
Time = 0.000954167s

PIMPLE: Iteration 1
DICPCG:  Solving for cellMotionUx, Initial residual = 4.8712e-07, Final residual = 9.38951e-09, No Iterations 9
GAMG:  Solving for pcorr, Initial residual = 1, Final residual = 0.0102294, No Iterations 5
DILUPBiCGStab:  Solving for Ux, Initial residual = 0.00143265, Final residual = 1.35935e-06, No Iterations 1
DILUPBiCGStab:  Solving for Uy, Initial residual = 0.00224218, Final residual = 2.35775e-06, No Iterations 1
DILUPBiCGStab:  Solving for Uz, Initial residual = 0.011671, Final residual = 1.02512e-05, No Iterations 1
GAMG:  Solving for p, Initial residual = 0.00265192, Final residual = 5.59012e-07, No Iterations 7
time step continuity errors : sum local = 1.42738e-10, global = 1.76222e-11
PIMPLE: Iteration 2
DILUPBiCGStab:  Solving for Ux, Initial residual = 2.47166e-05, Final residual = 3.87838e-08, No Iterations 1
DILUPBiCGStab:  Solving for Uy, Initial residual = 1.83432e-05, Final residual = 4.47109e-08, No Iterations 1
DILUPBiCGStab:  Solving for Uz, Initial residual = 0.000326031, Final residual = 8.83976e-07, No Iterations 1
GAMG:  Solving for p, Initial residual = 0.00210008, Final residual = 4.88612e-07, No Iterations 7
time step continuity errors : sum local = 1.24774e-10, global = 2.1658e-11, cumulative = 1.08223e-08
ExecutionTime = 2.85719 s  ClockTime = 3 s

Courant Number mean: 0.0569339 max: 0.495059
deltaT = 4.16667e-06
Time = 0.000958333s

PIMPLE: Iteration 1
DICPCG:  Solving for cellMotionUx, Initial residual = 4.85732e-07, Final residual = 9.91907e-09, No Iterations 15
GAMG:  Solving for pcorr, Initial residual = 1, Final residual = 0.0102027, No Iterations 5
DILUPBiCGStab:  Solving for Ux, Initial residual = 0.00143101, Final residual = 1.35567e-06, No Iterations 1
DILUPBiCGStab:  Solving for Uy, Initial residual = 0.00224459, Final residual = 2.35344e-06, No Iterations 1
DILUPBiCGStab:  Solving for Uz, Initial residual = 0.0121851, Final residual = 1.04648e-05, No Iterations 1
GAMG:  Solving for p, Initial residual = 0.00258594, Final residual = 9.13891e-07, No Iterations 6
time step continuity errors : sum local = 2.33336e-10, global = 2.2492e-11
PIMPLE: Iteration 2
DILUPBiCGStab:  Solving for Ux, Initial residual = 2.47607e-05, Final residual = 3.88162e-08, No Iterations 1
DILUPBiCGStab:  Solving for Uy, Initial residual = 1.82131e-05, Final residual = 4.41974e-08, No Iterations 1
DILUPBiCGStab:  Solving for Uz, Initial residual = 0.000346433, Final residual = 9.48586e-07, No Iterations 1
GAMG:  Solving for p, Initial residual = 0.00210927, Final residual = 4.98337e-07, No Iterations 7
time step continuity errors : sum local = 1.27289e-10, global = 2.25544e-11, cumulative = 1.08448e-08
ExecutionTime = 2.86852 s  ClockTime = 3 s

Courant Number mean: 0.056954 max: 0.495222
deltaT = 4.16667e-06
Time = 0.0009625s

PIMPLE: Iteration 1
DICPCG:  Solving for cellMotionUx, Initial residual = 4.88281e-07, Final residual = 4.67472e-09, No Iterations 9
GAMG:  Solving for pcorr, Initial residual = 1, Final residual = 0.0105965, No Iterations 5
DILUPBiCGStab:  Solving for Ux, Initial residual = 0.00142924, Final residual = 1.35108e-06, No Iterations 1
DILUPBiCGStab:  Solving for Uy, Initial residual = 0.00224671, Final residual = 2.35037e-06, No Iterations 1
DILUPBiCGStab:  Solving for Uz, Initial residual = 0.0121803, Final residual = 1.04314e-05, No Iterations 1
GAMG:  Solving for p, Initial residual = 0.00272752, Final residual = 5.94509e-07, No Iterations 7
time step continuity errors : sum local = 1.51832e-10, global = 2.3972e-11
PIMPLE: Iteration 2
DILUPBiCGStab:  Solving for Ux, Initial residual = 2.46143e-05, Final residual = 3.85798e-08, No Iterations 1
DILUPBiCGStab:  Solving for Uy, Initial residual = 1.81974e-05, Final residual = 4.41514e-08, No Iterations 1
DILUPBiCGStab:  Solving for Uz, Initial residual = 0.000341849, Final residual = 1.26897e-08, No Iterations 1
GAMG:  Solving for p, Initial residual = 0.0020979, Final residual = 4.98725e-07, No Iterations 7
time step continuity errors : sum local = 1.27389e-10, global = 2.00422e-11, cumulative = 1.08649e-08
ExecutionTime = 2.88051 s  ClockTime = 3 s

Courant Number mean: 0.0569741 max: 0.495385
deltaT = 4.16667e-06
Time = 0.000966667s

PIMPLE: Iteration 1
DICPCG:  Solving for cellMotionUx, Initial residual = 4.8055e-07, Final residual = 9.54175e-09, No Iterations 9
GAMG:  Solving for pcorr, Initial residual = 1, Final residual = 0.0105752, No Iterations 5
DILUPBiCGStab:  Solving for Ux, Initial residual = 0.00142766, Final residual = 1.34641e-06, No Iterations 1
DILUPBiCGStab:  Solving for Uy, Initial residual = 0.00224849, Final residual = 2.34753e-06, No Iterations 1
DILUPBiCGStab:  Solving for Uz, Initial residual = 0.0123963, Final residual = 1.07241e-05, No Iterations 1
GAMG:  Solving for p, Initial residual = 0.00276757, Final residual = 4.79484e-07, No Iterations 7
time step continuity errors : sum local = 1.22457e-10, global = 1.83509e-11
PIMPLE: Iteration 2
DILUPBiCGStab:  Solving for Ux, Initial residual = 2.46106e-05, Final residual = 3.82099e-08, No Iterations 1
DILUPBiCGStab:  Solving for Uy, Initial residual = 1.81964e-05, Final residual = 4.41726e-08, No Iterations 1
DILUPBiCGStab:  Solving for Uz, Initial residual = 0.000353096, Final residual = 9.03349e-07, No Iterations 1
GAMG:  Solving for p, Initial residual = 0.0020633, Final residual = 4.87591e-07, No Iterations 7
time step continuity errors : sum local = 1.24565e-10, global = 1.87123e-11, cumulative = 1.08836e-08
ExecutionTime = 2.89582 s  ClockTime = 3 s

Courant Number mean: 0.0569945 max: 0.495547
deltaT = 4.16667e-06
Time = 0.000970833s

PIMPLE: Iteration 1
DICPCG:  Solving for cellMotionUx, Initial residual = 4.79187e-07, Final residual = 9.43893e-09, No Iterations 15
GAMG:  Solving for pcorr, Initial residual = 1, Final residual = 0.0105543, No Iterations 5
DILUPBiCGStab:  Solving for Ux, Initial residual = 0.00142588, Final residual = 1.34259e-06, No Iterations 1
DILUPBiCGStab:  Solving for Uy, Initial residual = 0.00225103, Final residual = 2.34419e-06, No Iterations 1
DILUPBiCGStab:  Solving for Uz, Initial residual = 0.0115415, Final residual = 1.05539e-05, No Iterations 1
GAMG:  Solving for p, Initial residual = 0.00331613, Final residual = 8.93952e-07, No Iterations 6
time step continuity errors : sum local = 2.28348e-10, global = 3.87231e-11
PIMPLE: Iteration 2
DILUPBiCGStab:  Solving for Ux, Initial residual = 2.47366e-05, Final residual = 3.84741e-08, No Iterations 1
DILUPBiCGStab:  Solving for Uy, Initial residual = 1.83147e-05, Final residual = 4.43859e-08, No Iterations 1
DILUPBiCGStab:  Solving for Uz, Initial residual = 0.000352077, Final residual = 9.70786e-07, No Iterations 1
GAMG:  Solving for p, Initial residual = 0.0021381, Final residual = 5.1768e-07, No Iterations 7
time step continuity errors : sum local = 1.32292e-10, global = 2.16528e-11, cumulative = 1.09052e-08
ExecutionTime = 2.90784 s  ClockTime = 3 s

Courant Number mean: 0.0570153 max: 0.49571
deltaT = 4.16667e-06
Time = 0.000975s

PIMPLE: Iteration 1
DICPCG:  Solving for cellMotionUx, Initial residual = 4.81506e-07, Final residual = 4.85523e-09, No Iterations 9
GAMG:  Solving for pcorr, Initial residual = 1, Final residual = 0.0105335, No Iterations 5
DILUPBiCGStab:  Solving for Ux, Initial residual = 0.00142423, Final residual = 1.33892e-06, No Iterations 1
DILUPBiCGStab:  Solving for Uy, Initial residual = 0.00225324, Final residual = 2.34055e-06, No Iterations 1
DILUPBiCGStab:  Solving for Uz, Initial residual = 0.0124456, Final residual = 1.07719e-05, No Iterations 1
GAMG:  Solving for p, Initial residual = 0.00337696, Final residual = 6.71572e-07, No Iterations 7
time step continuity errors : sum local = 1.71594e-10, global = 2.50203e-11
PIMPLE: Iteration 2
DILUPBiCGStab:  Solving for Ux, Initial residual = 2.46617e-05, Final residual = 3.82609e-08, No Iterations 1
DILUPBiCGStab:  Solving for Uy, Initial residual = 1.81011e-05, Final residual = 4.46714e-08, No Iterations 1
DILUPBiCGStab:  Solving for Uz, Initial residual = 0.000335138, Final residual = 9.34531e-07, No Iterations 1
GAMG:  Solving for p, Initial residual = 0.00212668, Final residual = 3.7824e-07, No Iterations 7
time step continuity errors : sum local = 9.66677e-11, global = 1.16213e-11, cumulative = 1.09169e-08
ExecutionTime = 2.91961 s  ClockTime = 3 s

Courant Number mean: 0.0570369 max: 0.495873
deltaT = 4.16667e-06
Time = 0.000979167s

PIMPLE: Iteration 1
DICPCG:  Solving for cellMotionUx, Initial residual = 4.74374e-07, Final residual = 9.20339e-09, No Iterations 9
GAMG:  Solving for pcorr, Initial residual = 1, Final residual = 0.00994621, No Iterations 5
DILUPBiCGStab:  Solving for Ux, Initial residual = 0.00142318, Final residual = 1.33617e-06, No Iterations 1
DILUPBiCGStab:  Solving for Uy, Initial residual = 0.00225488, Final residual = 2.33509e-06, No Iterations 1
DILUPBiCGStab:  Solving for Uz, Initial residual = 0.0121081, Final residual = 1.14485e-05, No Iterations 1
GAMG:  Solving for p, Initial residual = 0.00309677, Final residual = 6.00408e-07, No Iterations 7
time step continuity errors : sum local = 1.53465e-10, global = 1.88756e-11
PIMPLE: Iteration 2
DILUPBiCGStab:  Solving for Ux, Initial residual = 2.45378e-05, Final residual = 3.79703e-08, No Iterations 1
DILUPBiCGStab:  Solving for Uy, Initial residual = 1.81503e-05, Final residual = 4.37415e-08, No Iterations 1
DILUPBiCGStab:  Solving for Uz, Initial residual = 0.000347726, Final residual = 9.35813e-09, No Iterations 1
GAMG:  Solving for p, Initial residual = 0.00206306, Final residual = 5.06648e-07, No Iterations 7
time step continuity errors : sum local = 1.29555e-10, global = 2.05857e-11, cumulative = 1.09374e-08
ExecutionTime = 2.93205 s  ClockTime = 3 s

Courant Number mean: 0.0570583 max: 0.496035
deltaT = 4.16667e-06
Time = 0.000983333s

PIMPLE: Iteration 1
DICPCG:  Solving for cellMotionUx, Initial residual = 4.73015e-07, Final residual = 9.69455e-09, No Iterations 15
GAMG:  Solving for pcorr, Initial residual = 1, Final residual = 0.00988841, No Iterations 5
DILUPBiCGStab:  Solving for Ux, Initial residual = 0.00142156, Final residual = 1.33271e-06, No Iterations 1
DILUPBiCGStab:  Solving for Uy, Initial residual = 0.0022587, Final residual = 2.3354e-06, No Iterations 1
DILUPBiCGStab:  Solving for Uz, Initial residual = 0.0115417, Final residual = 1.04991e-05, No Iterations 1
GAMG:  Solving for p, Initial residual = 0.00272085, Final residual = 4.53094e-07, No Iterations 7
time step continuity errors : sum local = 1.1585e-10, global = 1.77127e-11
PIMPLE: Iteration 2
DILUPBiCGStab:  Solving for Ux, Initial residual = 2.45955e-05, Final residual = 3.80274e-08, No Iterations 1
DILUPBiCGStab:  Solving for Uy, Initial residual = 1.80829e-05, Final residual = 4.41014e-08, No Iterations 1
DILUPBiCGStab:  Solving for Uz, Initial residual = 0.000357969, Final residual = 9.29377e-07, No Iterations 1
GAMG:  Solving for p, Initial residual = 0.00207756, Final residual = 4.97084e-07, No Iterations 7
time step continuity errors : sum local = 1.27131e-10, global = 2.00818e-11, cumulative = 1.09575e-08
ExecutionTime = 2.94439 s  ClockTime = 3 s

Courant Number mean: 0.0570795 max: 0.496198
deltaT = 4.16667e-06
Time = 0.0009875s

PIMPLE: Iteration 1
DICPCG:  Solving for cellMotionUx, Initial residual = 4.7571e-07, Final residual = 9.97464e-09, No Iterations 8
GAMG:  Solving for pcorr, Initial residual = 1, Final residual = 0.00986204, No Iterations 5
DILUPBiCGStab:  Solving for Ux, Initial residual = 0.00141971, Final residual = 1.32881e-06, No Iterations 1
DILUPBiCGStab:  Solving for Uy, Initial residual = 0.00226249, Final residual = 2.33214e-06, No Iterations 1
DILUPBiCGStab:  Solving for Uz, Initial residual = 0.0115983, Final residual = 1.12422e-05, No Iterations 1
GAMG:  Solving for p, Initial residual = 0.00317096, Final residual = 5.8789e-07, No Iterations 7
time step continuity errors : sum local = 1.50321e-10, global = 1.88986e-11
PIMPLE: Iteration 2
DILUPBiCGStab:  Solving for Ux, Initial residual = 2.45759e-05, Final residual = 3.81125e-08, No Iterations 1
DILUPBiCGStab:  Solving for Uy, Initial residual = 1.83079e-05, Final residual = 4.48424e-08, No Iterations 1
DILUPBiCGStab:  Solving for Uz, Initial residual = 0.0003338, Final residual = 9.20042e-07, No Iterations 1
GAMG:  Solving for p, Initial residual = 0.00209533, Final residual = 4.70947e-07, No Iterations 7
time step continuity errors : sum local = 1.20382e-10, global = 1.841e-11, cumulative = 1.09759e-08
ExecutionTime = 2.95929 s  ClockTime = 3 s

Courant Number mean: 0.0571004 max: 0.49636
deltaT = 4.16667e-06
Time = 0.000991667s

PIMPLE: Iteration 1
DICPCG:  Solving for cellMotionUx, Initial residual = 4.72777e-07, Final residual = 8.42607e-09, No Iterations 9
GAMG:  Solving for pcorr, Initial residual = 1, Final residual = 0.00983609, No Iterations 5
DILUPBiCGStab:  Solving for Ux, Initial residual = 0.00141818, Final residual = 1.32475e-06, No Iterations 1
DILUPBiCGStab:  Solving for Uy, Initial residual = 0.00226442, Final residual = 2.32714e-06, No Iterations 1
DILUPBiCGStab:  Solving for Uz, Initial residual = 0.0122033, Final residual = 1.13324e-05, No Iterations 1
GAMG:  Solving for p, Initial residual = 0.00324346, Final residual = 5.29155e-07, No Iterations 7
time step continuity errors : sum local = 1.35257e-10, global = 2.01258e-11
PIMPLE: Iteration 2
DILUPBiCGStab:  Solving for Ux, Initial residual = 2.45964e-05, Final residual = 3.79885e-08, No Iterations 1
DILUPBiCGStab:  Solving for Uy, Initial residual = 1.81648e-05, Final residual = 4.43728e-08, No Iterations 1
DILUPBiCGStab:  Solving for Uz, Initial residual = 0.000340231, Final residual = 9.84311e-07, No Iterations 1
GAMG:  Solving for p, Initial residual = 0.00214062, Final residual = 3.94537e-07, No Iterations 7
time step continuity errors : sum local = 1.00873e-10, global = 1.26637e-11, cumulative = 1.09886e-08
ExecutionTime = 2.97056 s  ClockTime = 3 s

Courant Number mean: 0.0571213 max: 0.496523
deltaT = 4.16667e-06
Time = 0.000995833s

PIMPLE: Iteration 1
DICPCG:  Solving for cellMotionUx, Initial residual = 4.67296e-07, Final residual = 9.65322e-09, No Iterations 15
GAMG:  Solving for pcorr, Initial residual = 1, Final residual = 0.00981041, No Iterations 5
DILUPBiCGStab:  Solving for Ux, Initial residual = 0.00141734, Final residual = 1.32096e-06, No Iterations 1
DILUPBiCGStab:  Solving for Uy, Initial residual = 0.0022664, Final residual = 2.3214e-06, No Iterations 1
DILUPBiCGStab:  Solving for Uz, Initial residual = 0.0115795, Final residual = 1.06594e-05, No Iterations 1
GAMG:  Solving for p, Initial residual = 0.00324796, Final residual = 4.91227e-07, No Iterations 7
time step continuity errors : sum local = 1.25605e-10, global = 1.87371e-11
PIMPLE: Iteration 2
DILUPBiCGStab:  Solving for Ux, Initial residual = 2.45416e-05, Final residual = 3.75931e-08, No Iterations 1
DILUPBiCGStab:  Solving for Uy, Initial residual = 1.81892e-05, Final residual = 4.46102e-08, No Iterations 1
DILUPBiCGStab:  Solving for Uz, Initial residual = 0.000356569, Final residual = 9.08335e-07, No Iterations 1
GAMG:  Solving for p, Initial residual = 0.00207888, Final residual = 9.34409e-07, No Iterations 6
time step continuity errors : sum local = 2.38997e-10, global = 3.36202e-11, cumulative = 1.10222e-08
ExecutionTime = 2.98157 s  ClockTime = 3 s

Courant Number mean: 0.0571425 max: 0.496685
deltaT = 4.16667e-06
Time = 0.001s

PIMPLE: Iteration 1
DICPCG:  Solving for cellMotionUx, Initial residual = 4.69812e-07, Final residual = 9.79009e-09, No Iterations 8
GAMG:  Solving for pcorr, Initial residual = 1, Final residual = 0.00978462, No Iterations 5
DILUPBiCGStab:  Solving for Ux, Initial residual = 0.0014162, Final residual = 1.31733e-06, No Iterations 1
DILUPBiCGStab:  Solving for Uy, Initial residual = 0.0022683, Final residual = 2.31662e-06, No Iterations 1
DILUPBiCGStab:  Solving for Uz, Initial residual = 0.0115453, Final residual = 1.09398e-05, No Iterations 1
GAMG:  Solving for p, Initial residual = 0.00340254, Final residual = 4.54251e-07, No Iterations 7
time step continuity errors : sum local = 1.1619e-10, global = 1.72926e-11
PIMPLE: Iteration 2
DILUPBiCGStab:  Solving for Ux, Initial residual = 2.45361e-05, Final residual = 3.74662e-08, No Iterations 1
DILUPBiCGStab:  Solving for Uy, Initial residual = 1.83268e-05, Final residual = 4.43854e-08, No Iterations 1
DILUPBiCGStab:  Solving for Uz, Initial residual = 0.00035866, Final residual = 9.22984e-07, No Iterations 1
GAMG:  Solving for p, Initial residual = 0.00210709, Final residual = 4.08829e-07, No Iterations 7
time step continuity errors : sum local = 1.046e-10, global = 1.39762e-11, cumulative = 1.10362e-08
ExecutionTime = 3.00656 s  ClockTime = 3 s

End

