
simpleFoam has been superseded and replaced by the more general
incompressibleFluid solver module executed by the foamRun application:

    foamRun -solver incompressibleFluid

/*---------------------------------------------------------------------------*\
  =========                 |
  \\      /  F ield         | OpenFOAM: The Open Source CFD Toolbox
   \\    /   O peration     | Website:  https://openfoam.org
    \\  /    A nd           | Version:  13
     \\/     M anipulation  |
\*---------------------------------------------------------------------------*/
Build  : 13-58ed5c2046ef
Exec   : foamRun -solver incompressibleFluid
Date   : Apr 07 2026
Time   : 14:54:16
Host   : "P0243"
PID    : 903237
I/O    : uncollated
Case   : /home/wk9874/Documents/simvue/connectors-openfoam/examples/airFoil2D
nProcs : 1
sigFpe : Enabling floating point exception trapping (FOAM_SIGFPE).
fileModificationChecking : Monitoring run-time modified files using timeStampMaster (fileModificationSkew 10)
allowSystemOperations : Allowing user-supplied system call operations

// * * * * * * * * * * * * * * * * * * * * * * * * * * * * * * * * * * * * * //
Create time

Create mesh for time = 0

Selecting solver incompressibleFluid
Selecting viscosity model constant
Selecting turbulence model type RAS
    Selecting RAS turbulence model SpalartAllmaras
No MRF models present


SIMPLE: Convergence criteria found
        p: tolerance 1e-05
        U: tolerance 1e-05
        nuTilda: tolerance 1e-05


SIMPLE: Operating solver in steady-state mode with 1 outer corrector
SIMPLE: Operating solver in SIMPLE mode



Starting time loop

Time = 1s

smoothSolver:  Solving for Ux, Initial residual = 1, Final residual = 0.0611362, No Iterations 2
smoothSolver:  Solving for Uy, Initial residual = 1, Final residual = 0.0585177, No Iterations 2
GAMG:  Solving for p, Initial residual = 1, Final residual = 0.0796943, No Iterations 9
time step continuity errors : sum local = 0.00025243, global = -8.28823e-05, cumulative = -8.28823e-05
Selecting patchDistMethod meshWave
smoothSolver:  Solving for nuTilda, Initial residual = 1, Final residual = 0.0447475, No Iterations 2
ExecutionTime = 0.192158 s  ClockTime = 0 s

Time = 2s

smoothSolver:  Solving for Ux, Initial residual = 0.435203, Final residual = 0.0193283, No Iterations 4
smoothSolver:  Solving for Uy, Initial residual = 0.57391, Final residual = 0.0151303, No Iterations 4
GAMG:  Solving for p, Initial residual = 0.116859, Final residual = 0.0109359, No Iterations 5
time step continuity errors : sum local = 0.000471345, global = 0.000181513, cumulative = 9.86311e-05
smoothSolver:  Solving for nuTilda, Initial residual = 0.135485, Final residual = 0.00946975, No Iterations 2
ExecutionTime = 0.201447 s  ClockTime = 0 s

Time = 3s

smoothSolver:  Solving for Ux, Initial residual = 0.167726, Final residual = 0.00713131, No Iterations 4
smoothSolver:  Solving for Uy, Initial residual = 0.15856, Final residual = 0.00482321, No Iterations 4
GAMG:  Solving for p, Initial residual = 0.175115, Final residual = 0.012967, No Iterations 7
time step continuity errors : sum local = 0.000417438, global = -1.02732e-05, cumulative = 8.83579e-05
smoothSolver:  Solving for nuTilda, Initial residual = 0.129857, Final residual = 0.0123807, No Iterations 2
ExecutionTime = 0.210788 s  ClockTime = 0 s

Time = 4s

smoothSolver:  Solving for Ux, Initial residual = 0.0487664, Final residual = 0.00125868, No Iterations 4
smoothSolver:  Solving for Uy, Initial residual = 0.0578518, Final residual = 0.00173435, No Iterations 4
GAMG:  Solving for p, Initial residual = 0.299714, Final residual = 0.0288698, No Iterations 6
time step continuity errors : sum local = 0.000417623, global = 8.06578e-05, cumulative = 0.000169016
smoothSolver:  Solving for nuTilda, Initial residual = 0.166633, Final residual = 0.00450877, No Iterations 4
ExecutionTime = 0.220083 s  ClockTime = 0 s

Time = 5s

smoothSolver:  Solving for Ux, Initial residual = 0.125635, Final residual = 0.00585351, No Iterations 4
smoothSolver:  Solving for Uy, Initial residual = 0.152375, Final residual = 0.00406215, No Iterations 4
GAMG:  Solving for p, Initial residual = 0.172338, Final residual = 0.0111972, No Iterations 5
time step continuity errors : sum local = 0.000348934, global = -8.89138e-05, cumulative = 8.01019e-05
smoothSolver:  Solving for nuTilda, Initial residual = 0.122721, Final residual = 0.00327904, No Iterations 4
ExecutionTime = 0.229172 s  ClockTime = 0 s

Time = 6s

smoothSolver:  Solving for Ux, Initial residual = 0.142444, Final residual = 0.00633213, No Iterations 4
smoothSolver:  Solving for Uy, Initial residual = 0.168757, Final residual = 0.00556288, No Iterations 4
GAMG:  Solving for p, Initial residual = 0.232693, Final residual = 0.0227101, No Iterations 5
time step continuity errors : sum local = 0.000476452, global = 0.000153401, cumulative = 0.000233503
smoothSolver:  Solving for nuTilda, Initial residual = 0.0895766, Final residual = 0.00244801, No Iterations 4
ExecutionTime = 0.238187 s  ClockTime = 0 s

Time = 7s

smoothSolver:  Solving for Ux, Initial residual = 0.0996355, Final residual = 0.00859096, No Iterations 2
smoothSolver:  Solving for Uy, Initial residual = 0.124331, Final residual = 0.00849264, No Iterations 2
GAMG:  Solving for p, Initial residual = 0.387847, Final residual = 0.0300678, No Iterations 6
time step continuity errors : sum local = 0.000343689, global = 0.000109934, cumulative = 0.000343437
smoothSolver:  Solving for nuTilda, Initial residual = 0.0707866, Final residual = 0.00202086, No Iterations 4
ExecutionTime = 0.247345 s  ClockTime = 0 s

Time = 8s

smoothSolver:  Solving for Ux, Initial residual = 0.114719, Final residual = 0.00386211, No Iterations 4
smoothSolver:  Solving for Uy, Initial residual = 0.120683, Final residual = 0.00902123, No Iterations 2
GAMG:  Solving for p, Initial residual = 0.245045, Final residual = 0.0158977, No Iterations 5
time step continuity errors : sum local = 0.000322147, global = -7.25682e-05, cumulative = 0.000270869
smoothSolver:  Solving for nuTilda, Initial residual = 0.0570333, Final residual = 0.00171445, No Iterations 4
ExecutionTime = 0.255999 s  ClockTime = 0 s

Time = 9s

smoothSolver:  Solving for Ux, Initial residual = 0.0767167, Final residual = 0.00274326, No Iterations 4
smoothSolver:  Solving for Uy, Initial residual = 0.0796384, Final residual = 0.00757968, No Iterations 2
GAMG:  Solving for p, Initial residual = 0.327346, Final residual = 0.0234873, No Iterations 5
time step continuity errors : sum local = 0.000296993, global = 3.8605e-05, cumulative = 0.000309474
smoothSolver:  Solving for nuTilda, Initial residual = 0.0446852, Final residual = 0.0014388, No Iterations 4
ExecutionTime = 0.265455 s  ClockTime = 0 s

Time = 10s

smoothSolver:  Solving for Ux, Initial residual = 0.0545264, Final residual = 0.00146543, No Iterations 4
smoothSolver:  Solving for Uy, Initial residual = 0.0689012, Final residual = 0.00651951, No Iterations 2
GAMG:  Solving for p, Initial residual = 0.340375, Final residual = 0.0307223, No Iterations 5
time step continuity errors : sum local = 0.00034607, global = -9.9285e-05, cumulative = 0.000210189
smoothSolver:  Solving for nuTilda, Initial residual = 0.0397197, Final residual = 0.0012331, No Iterations 4
ExecutionTime = 0.274828 s  ClockTime = 0 s

Time = 11s

smoothSolver:  Solving for Ux, Initial residual = 0.0631326, Final residual = 0.00204818, No Iterations 4
smoothSolver:  Solving for Uy, Initial residual = 0.0754182, Final residual = 0.00747984, No Iterations 2
GAMG:  Solving for p, Initial residual = 0.259723, Final residual = 0.019627, No Iterations 5
time step continuity errors : sum local = 0.000326743, global = 6.50158e-05, cumulative = 0.000275205
smoothSolver:  Solving for nuTilda, Initial residual = 0.0374005, Final residual = 0.00113125, No Iterations 4
ExecutionTime = 0.283505 s  ClockTime = 0 s

Time = 12s

smoothSolver:  Solving for Ux, Initial residual = 0.0643311, Final residual = 0.00222013, No Iterations 4
smoothSolver:  Solving for Uy, Initial residual = 0.0680151, Final residual = 0.00203621, No Iterations 4
GAMG:  Solving for p, Initial residual = 0.324063, Final residual = 0.0225538, No Iterations 5
time step continuity errors : sum local = 0.000261246, global = -3.53542e-05, cumulative = 0.000239851
smoothSolver:  Solving for nuTilda, Initial residual = 0.0342669, Final residual = 0.0010636, No Iterations 4
ExecutionTime = 0.292482 s  ClockTime = 0 s

Time = 13s

smoothSolver:  Solving for Ux, Initial residual = 0.0587018, Final residual = 0.00482786, No Iterations 2
smoothSolver:  Solving for Uy, Initial residual = 0.0692479, Final residual = 0.0050445, No Iterations 2
GAMG:  Solving for p, Initial residual = 0.465695, Final residual = 0.0350347, No Iterations 6
time step continuity errors : sum local = 0.000253635, global = -5.90685e-05, cumulative = 0.000180782
smoothSolver:  Solving for nuTilda, Initial residual = 0.0320852, Final residual = 0.000985592, No Iterations 4
ExecutionTime = 0.301417 s  ClockTime = 0 s

Time = 14s

smoothSolver:  Solving for Ux, Initial residual = 0.0579907, Final residual = 0.00536744, No Iterations 2
smoothSolver:  Solving for Uy, Initial residual = 0.0634511, Final residual = 0.00388553, No Iterations 2
GAMG:  Solving for p, Initial residual = 0.344761, Final residual = 0.0245293, No Iterations 6
time step continuity errors : sum local = 0.000262771, global = -5.77139e-05, cumulative = 0.000123068
smoothSolver:  Solving for nuTilda, Initial residual = 0.0296515, Final residual = 0.000929326, No Iterations 4
ExecutionTime = 0.313926 s  ClockTime = 0 s

Time = 15s

smoothSolver:  Solving for Ux, Initial residual = 0.050106, Final residual = 0.00152258, No Iterations 4
smoothSolver:  Solving for Uy, Initial residual = 0.0539325, Final residual = 0.00415342, No Iterations 2
GAMG:  Solving for p, Initial residual = 0.437356, Final residual = 0.0358323, No Iterations 5
time step continuity errors : sum local = 0.000271135, global = 6.85231e-05, cumulative = 0.000191591
smoothSolver:  Solving for nuTilda, Initial residual = 0.0288169, Final residual = 0.00086533, No Iterations 4
ExecutionTime = 0.323938 s  ClockTime = 0 s

Time = 16s

smoothSolver:  Solving for Ux, Initial residual = 0.0439381, Final residual = 0.00121828, No Iterations 4
smoothSolver:  Solving for Uy, Initial residual = 0.0524489, Final residual = 0.00473044, No Iterations 2
GAMG:  Solving for p, Initial residual = 0.377707, Final residual = 0.0375288, No Iterations 4
time step continuity errors : sum local = 0.000301296, global = 4.5761e-05, cumulative = 0.000237352
smoothSolver:  Solving for nuTilda, Initial residual = 0.0269358, Final residual = 0.000819578, No Iterations 4
ExecutionTime = 0.333168 s  ClockTime = 0 s

Time = 17s

smoothSolver:  Solving for Ux, Initial residual = 0.0451239, Final residual = 0.00120737, No Iterations 4
smoothSolver:  Solving for Uy, Initial residual = 0.0524478, Final residual = 0.00520923, No Iterations 2
GAMG:  Solving for p, Initial residual = 0.277823, Final residual = 0.0260476, No Iterations 5
time step continuity errors : sum local = 0.000298739, global = -9.70573e-05, cumulative = 0.000140295
smoothSolver:  Solving for nuTilda, Initial residual = 0.0264834, Final residual = 0.00078221, No Iterations 4
ExecutionTime = 0.342 s  ClockTime = 0 s

Time = 18s

smoothSolver:  Solving for Ux, Initial residual = 0.0437015, Final residual = 0.00144824, No Iterations 4
smoothSolver:  Solving for Uy, Initial residual = 0.0478363, Final residual = 0.00152594, No Iterations 4
GAMG:  Solving for p, Initial residual = 0.284661, Final residual = 0.0226745, No Iterations 5
time step continuity errors : sum local = 0.000235555, global = 6.05193e-05, cumulative = 0.000200814
smoothSolver:  Solving for nuTilda, Initial residual = 0.025169, Final residual = 0.000751616, No Iterations 4
ExecutionTime = 0.351126 s  ClockTime = 0 s

Time = 19s

smoothSolver:  Solving for Ux, Initial residual = 0.0415504, Final residual = 0.00357821, No Iterations 2
smoothSolver:  Solving for Uy, Initial residual = 0.047538, Final residual = 0.00427611, No Iterations 2
GAMG:  Solving for p, Initial residual = 0.507059, Final residual = 0.038933, No Iterations 4
time step continuity errors : sum local = 0.000209716, global = 8.90464e-06, cumulative = 0.000209719
smoothSolver:  Solving for nuTilda, Initial residual = 0.0242018, Final residual = 0.00071529, No Iterations 4
ExecutionTime = 0.35937 s  ClockTime = 0 s

Time = 20s

smoothSolver:  Solving for Ux, Initial residual = 0.0399042, Final residual = 0.00333524, No Iterations 2
smoothSolver:  Solving for Uy, Initial residual = 0.0481379, Final residual = 0.00333612, No Iterations 2
GAMG:  Solving for p, Initial residual = 0.394067, Final residual = 0.0321107, No Iterations 4
time step continuity errors : sum local = 0.000226586, global = -3.5104e-06, cumulative = 0.000206209
smoothSolver:  Solving for nuTilda, Initial residual = 0.0233438, Final residual = 0.000677853, No Iterations 4
ExecutionTime = 0.367828 s  ClockTime = 0 s

Time = 21s

smoothSolver:  Solving for Ux, Initial residual = 0.0381828, Final residual = 0.00113612, No Iterations 4
smoothSolver:  Solving for Uy, Initial residual = 0.0428673, Final residual = 0.00342676, No Iterations 2
GAMG:  Solving for p, Initial residual = 0.369955, Final residual = 0.0361031, No Iterations 5
time step continuity errors : sum local = 0.000256052, global = 5.76581e-05, cumulative = 0.000263867
smoothSolver:  Solving for nuTilda, Initial residual = 0.0223295, Final residual = 0.000640245, No Iterations 4
ExecutionTime = 0.376337 s  ClockTime = 0 s

Time = 22s

smoothSolver:  Solving for Ux, Initial residual = 0.0336436, Final residual = 0.00100061, No Iterations 4
smoothSolver:  Solving for Uy, Initial residual = 0.0387316, Final residual = 0.00107247, No Iterations 4
GAMG:  Solving for p, Initial residual = 0.466912, Final residual = 0.0426994, No Iterations 4
time step continuity errors : sum local = 0.000229452, global = 3.92687e-05, cumulative = 0.000303135
smoothSolver:  Solving for nuTilda, Initial residual = 0.0219221, Final residual = 0.000594845, No Iterations 4
ExecutionTime = 0.385457 s  ClockTime = 0 s

Time = 23s

smoothSolver:  Solving for Ux, Initial residual = 0.0325442, Final residual = 0.00316345, No Iterations 2
smoothSolver:  Solving for Uy, Initial residual = 0.0395043, Final residual = 0.00381968, No Iterations 2
GAMG:  Solving for p, Initial residual = 0.277934, Final residual = 0.024804, No Iterations 4
time step continuity errors : sum local = 0.000212163, global = 4.01193e-05, cumulative = 0.000343255
smoothSolver:  Solving for nuTilda, Initial residual = 0.020923, Final residual = 0.000541859, No Iterations 4
ExecutionTime = 0.393796 s  ClockTime = 0 s

Time = 24s

smoothSolver:  Solving for Ux, Initial residual = 0.0349207, Final residual = 0.00111594, No Iterations 4
smoothSolver:  Solving for Uy, Initial residual = 0.0391515, Final residual = 0.00118241, No Iterations 4
GAMG:  Solving for p, Initial residual = 0.241702, Final residual = 0.0216642, No Iterations 5
time step continuity errors : sum local = 0.000208857, global = -7.15457e-05, cumulative = 0.000271709
smoothSolver:  Solving for nuTilda, Initial residual = 0.0204468, Final residual = 0.000494175, No Iterations 4
ExecutionTime = 0.405065 s  ClockTime = 0 s

Time = 25s

smoothSolver:  Solving for Ux, Initial residual = 0.0330049, Final residual = 0.00107758, No Iterations 4
smoothSolver:  Solving for Uy, Initial residual = 0.0360832, Final residual = 0.00109361, No Iterations 4
GAMG:  Solving for p, Initial residual = 0.280707, Final residual = 0.024685, No Iterations 5
time step continuity errors : sum local = 0.000198083, global = 5.31219e-05, cumulative = 0.000324831
smoothSolver:  Solving for nuTilda, Initial residual = 0.0197807, Final residual = 0.000466094, No Iterations 4
ExecutionTime = 0.417435 s  ClockTime = 0 s

Time = 26s

smoothSolver:  Solving for Ux, Initial residual = 0.0307387, Final residual = 0.00248884, No Iterations 2
smoothSolver:  Solving for Uy, Initial residual = 0.0347192, Final residual = 0.00306279, No Iterations 2
GAMG:  Solving for p, Initial residual = 0.436201, Final residual = 0.0380576, No Iterations 4
time step continuity errors : sum local = 0.000180978, global = 2.29552e-05, cumulative = 0.000347786
smoothSolver:  Solving for nuTilda, Initial residual = 0.0191255, Final residual = 0.00043562, No Iterations 4
ExecutionTime = 0.4264 s  ClockTime = 0 s

Time = 27s

smoothSolver:  Solving for Ux, Initial residual = 0.0298034, Final residual = 0.00280594, No Iterations 2
smoothSolver:  Solving for Uy, Initial residual = 0.0338267, Final residual = 0.00267762, No Iterations 2
GAMG:  Solving for p, Initial residual = 0.367955, Final residual = 0.0245351, No Iterations 6
time step continuity errors : sum local = 0.000131939, global = 3.1067e-05, cumulative = 0.000378853
smoothSolver:  Solving for nuTilda, Initial residual = 0.0186277, Final residual = 0.000398647, No Iterations 4
ExecutionTime = 0.435964 s  ClockTime = 0 s

Time = 28s

smoothSolver:  Solving for Ux, Initial residual = 0.0283558, Final residual = 0.000890381, No Iterations 4
smoothSolver:  Solving for Uy, Initial residual = 0.0298888, Final residual = 0.00284188, No Iterations 2
GAMG:  Solving for p, Initial residual = 0.389201, Final residual = 0.0316773, No Iterations 6
time step continuity errors : sum local = 0.000154868, global = 4.22662e-05, cumulative = 0.000421119
smoothSolver:  Solving for nuTilda, Initial residual = 0.0183265, Final residual = 0.000361819, No Iterations 4
ExecutionTime = 0.446046 s  ClockTime = 0 s

Time = 29s

smoothSolver:  Solving for Ux, Initial residual = 0.0255518, Final residual = 0.00072675, No Iterations 4
smoothSolver:  Solving for Uy, Initial residual = 0.0265019, Final residual = 0.000800787, No Iterations 4
GAMG:  Solving for p, Initial residual = 0.324911, Final residual = 0.0323121, No Iterations 5
time step continuity errors : sum local = 0.000179525, global = -5.05407e-05, cumulative = 0.000370579
smoothSolver:  Solving for nuTilda, Initial residual = 0.0179549, Final residual = 0.000345277, No Iterations 4
ExecutionTime = 0.458419 s  ClockTime = 0 s

Time = 30s

smoothSolver:  Solving for Ux, Initial residual = 0.0265465, Final residual = 0.000744371, No Iterations 4
smoothSolver:  Solving for Uy, Initial residual = 0.0271998, Final residual = 0.00077786, No Iterations 4
GAMG:  Solving for p, Initial residual = 0.22108, Final residual = 0.0200568, No Iterations 4
time step continuity errors : sum local = 0.000151177, global = -3.228e-05, cumulative = 0.000338299
smoothSolver:  Solving for nuTilda, Initial residual = 0.0175052, Final residual = 0.000324806, No Iterations 4
ExecutionTime = 0.469863 s  ClockTime = 0 s

Time = 31s

smoothSolver:  Solving for Ux, Initial residual = 0.0275933, Final residual = 0.000931785, No Iterations 4
smoothSolver:  Solving for Uy, Initial residual = 0.0262003, Final residual = 0.000793835, No Iterations 4
GAMG:  Solving for p, Initial residual = 0.201172, Final residual = 0.013798, No Iterations 6
time step continuity errors : sum local = 0.000108822, global = -3.00027e-05, cumulative = 0.000308296
smoothSolver:  Solving for nuTilda, Initial residual = 0.0172665, Final residual = 0.00030639, No Iterations 4
ExecutionTime = 0.482534 s  ClockTime = 0 s

Time = 32s

smoothSolver:  Solving for Ux, Initial residual = 0.0255082, Final residual = 0.000806092, No Iterations 4
smoothSolver:  Solving for Uy, Initial residual = 0.0235704, Final residual = 0.00072536, No Iterations 4
GAMG:  Solving for p, Initial residual = 0.229979, Final residual = 0.0202268, No Iterations 6
time step continuity errors : sum local = 0.000130914, global = -3.57361e-05, cumulative = 0.00027256
smoothSolver:  Solving for nuTilda, Initial residual = 0.0170942, Final residual = 0.000301113, No Iterations 4
ExecutionTime = 0.494569 s  ClockTime = 0 s

Time = 33s

smoothSolver:  Solving for Ux, Initial residual = 0.0231691, Final residual = 0.0022078, No Iterations 2
smoothSolver:  Solving for Uy, Initial residual = 0.0212564, Final residual = 0.00206819, No Iterations 2
GAMG:  Solving for p, Initial residual = 0.287079, Final residual = 0.0257068, No Iterations 6
time step continuity errors : sum local = 0.000121689, global = -3.14106e-05, cumulative = 0.000241149
smoothSolver:  Solving for nuTilda, Initial residual = 0.0170565, Final residual = 0.000296941, No Iterations 4
ExecutionTime = 0.506076 s  ClockTime = 0 s

Time = 34s

smoothSolver:  Solving for Ux, Initial residual = 0.0234512, Final residual = 0.000679672, No Iterations 4
smoothSolver:  Solving for Uy, Initial residual = 0.0205648, Final residual = 0.00183996, No Iterations 2
GAMG:  Solving for p, Initial residual = 0.321088, Final residual = 0.0279538, No Iterations 6
time step continuity errors : sum local = 0.000113794, global = -2.43421e-05, cumulative = 0.000216807
smoothSolver:  Solving for nuTilda, Initial residual = 0.0171608, Final residual = 0.000299206, No Iterations 4
ExecutionTime = 0.517749 s  ClockTime = 0 s

Time = 35s

smoothSolver:  Solving for Ux, Initial residual = 0.0228243, Final residual = 0.000696326, No Iterations 4
smoothSolver:  Solving for Uy, Initial residual = 0.0189174, Final residual = 0.00053419, No Iterations 4
GAMG:  Solving for p, Initial residual = 0.286976, Final residual = 0.0253723, No Iterations 6
time step continuity errors : sum local = 0.000109788, global = -1.59521e-05, cumulative = 0.000200855
smoothSolver:  Solving for nuTilda, Initial residual = 0.0171427, Final residual = 0.000299284, No Iterations 4
ExecutionTime = 0.528524 s  ClockTime = 0 s

Time = 36s

smoothSolver:  Solving for Ux, Initial residual = 0.0215878, Final residual = 0.000591624, No Iterations 4
smoothSolver:  Solving for Uy, Initial residual = 0.0175605, Final residual = 0.0006023, No Iterations 4
GAMG:  Solving for p, Initial residual = 0.217039, Final residual = 0.0184373, No Iterations 6
time step continuity errors : sum local = 9.7774e-05, global = 1.76781e-05, cumulative = 0.000218533
smoothSolver:  Solving for nuTilda, Initial residual = 0.0172407, Final residual = 0.00029843, No Iterations 4
ExecutionTime = 0.538822 s  ClockTime = 0 s

Time = 37s

smoothSolver:  Solving for Ux, Initial residual = 0.021338, Final residual = 0.000639414, No Iterations 4
smoothSolver:  Solving for Uy, Initial residual = 0.017616, Final residual = 0.000627007, No Iterations 4
GAMG:  Solving for p, Initial residual = 0.173412, Final residual = 0.0152901, No Iterations 6
time step continuity errors : sum local = 9.32782e-05, global = 1.95976e-05, cumulative = 0.000238131
smoothSolver:  Solving for nuTilda, Initial residual = 0.0175631, Final residual = 0.000297526, No Iterations 4
ExecutionTime = 0.548662 s  ClockTime = 0 s

Time = 38s

smoothSolver:  Solving for Ux, Initial residual = 0.0210231, Final residual = 0.000720203, No Iterations 4
smoothSolver:  Solving for Uy, Initial residual = 0.0164654, Final residual = 0.00060438, No Iterations 4
GAMG:  Solving for p, Initial residual = 0.160169, Final residual = 0.0151303, No Iterations 5
time step continuity errors : sum local = 9.12457e-05, global = -2.80117e-05, cumulative = 0.000210119
smoothSolver:  Solving for nuTilda, Initial residual = 0.01787, Final residual = 0.00029722, No Iterations 4
ExecutionTime = 0.55723 s  ClockTime = 0 s

Time = 39s

smoothSolver:  Solving for Ux, Initial residual = 0.0198461, Final residual = 0.000661992, No Iterations 4
smoothSolver:  Solving for Uy, Initial residual = 0.0147732, Final residual = 0.000532864, No Iterations 4
GAMG:  Solving for p, Initial residual = 0.165039, Final residual = 0.0128024, No Iterations 6
time step continuity errors : sum local = 7.0203e-05, global = -1.75857e-05, cumulative = 0.000192533
smoothSolver:  Solving for nuTilda, Initial residual = 0.018059, Final residual = 0.00029617, No Iterations 4
ExecutionTime = 0.566832 s  ClockTime = 0 s

Time = 40s

smoothSolver:  Solving for Ux, Initial residual = 0.019032, Final residual = 0.000568902, No Iterations 4
smoothSolver:  Solving for Uy, Initial residual = 0.013541, Final residual = 0.000444019, No Iterations 4
GAMG:  Solving for p, Initial residual = 0.178634, Final residual = 0.0161655, No Iterations 7
time step continuity errors : sum local = 7.79304e-05, global = 1.75937e-05, cumulative = 0.000210127
smoothSolver:  Solving for nuTilda, Initial residual = 0.0183153, Final residual = 0.00183028, No Iterations 2
ExecutionTime = 0.576387 s  ClockTime = 0 s

Time = 41s

smoothSolver:  Solving for Ux, Initial residual = 0.0190453, Final residual = 0.000557264, No Iterations 4
smoothSolver:  Solving for Uy, Initial residual = 0.0135941, Final residual = 0.000439539, No Iterations 4
GAMG:  Solving for p, Initial residual = 0.173221, Final residual = 0.013782, No Iterations 7
time step continuity errors : sum local = 6.33305e-05, global = 1.6358e-05, cumulative = 0.000226485
smoothSolver:  Solving for nuTilda, Initial residual = 0.018425, Final residual = 0.00183289, No Iterations 2
ExecutionTime = 0.585603 s  ClockTime = 0 s

Time = 42s

smoothSolver:  Solving for Ux, Initial residual = 0.0187436, Final residual = 0.000521982, No Iterations 4
smoothSolver:  Solving for Uy, Initial residual = 0.0138338, Final residual = 0.000489231, No Iterations 4
GAMG:  Solving for p, Initial residual = 0.150224, Final residual = 0.014407, No Iterations 5
time step continuity errors : sum local = 7.02276e-05, global = 2.10071e-05, cumulative = 0.000247492
smoothSolver:  Solving for nuTilda, Initial residual = 0.0185765, Final residual = 0.00182832, No Iterations 2
ExecutionTime = 0.59553 s  ClockTime = 0 s

Time = 43s

smoothSolver:  Solving for Ux, Initial residual = 0.018345, Final residual = 0.000512113, No Iterations 4
smoothSolver:  Solving for Uy, Initial residual = 0.0140046, Final residual = 0.000527583, No Iterations 4
GAMG:  Solving for p, Initial residual = 0.130436, Final residual = 0.0115648, No Iterations 6
time step continuity errors : sum local = 6.13693e-05, global = 1.62326e-05, cumulative = 0.000263725
smoothSolver:  Solving for nuTilda, Initial residual = 0.018685, Final residual = 0.00182021, No Iterations 2
ExecutionTime = 0.604978 s  ClockTime = 0 s

Time = 44s

smoothSolver:  Solving for Ux, Initial residual = 0.0179289, Final residual = 0.000541959, No Iterations 4
smoothSolver:  Solving for Uy, Initial residual = 0.0136597, Final residual = 0.000524656, No Iterations 4
GAMG:  Solving for p, Initial residual = 0.119862, Final residual = 0.0104874, No Iterations 8
time step continuity errors : sum local = 5.79466e-05, global = 1.48277e-05, cumulative = 0.000278552
smoothSolver:  Solving for nuTilda, Initial residual = 0.0187344, Final residual = 0.00180767, No Iterations 2
ExecutionTime = 0.615332 s  ClockTime = 0 s

Time = 45s

smoothSolver:  Solving for Ux, Initial residual = 0.0171944, Final residual = 0.000547565, No Iterations 4
smoothSolver:  Solving for Uy, Initial residual = 0.0127742, Final residual = 0.000500343, No Iterations 4
GAMG:  Solving for p, Initial residual = 0.117049, Final residual = 0.0105462, No Iterations 7
time step continuity errors : sum local = 5.64442e-05, global = -1.35095e-05, cumulative = 0.000265043
smoothSolver:  Solving for nuTilda, Initial residual = 0.0187279, Final residual = 0.00179263, No Iterations 2
ExecutionTime = 0.625359 s  ClockTime = 0 s

Time = 46s

smoothSolver:  Solving for Ux, Initial residual = 0.0164675, Final residual = 0.000503652, No Iterations 4
smoothSolver:  Solving for Uy, Initial residual = 0.01199, Final residual = 0.000468151, No Iterations 4
GAMG:  Solving for p, Initial residual = 0.111739, Final residual = 0.0110515, No Iterations 6
time step continuity errors : sum local = 5.58287e-05, global = 1.18501e-05, cumulative = 0.000276893
smoothSolver:  Solving for nuTilda, Initial residual = 0.0187103, Final residual = 0.00177268, No Iterations 2
ExecutionTime = 0.63489 s  ClockTime = 0 s

Time = 47s

smoothSolver:  Solving for Ux, Initial residual = 0.0162275, Final residual = 0.000459188, No Iterations 4
smoothSolver:  Solving for Uy, Initial residual = 0.0114568, Final residual = 0.000442684, No Iterations 4
GAMG:  Solving for p, Initial residual = 0.106782, Final residual = 0.00827795, No Iterations 7
time step continuity errors : sum local = 3.99283e-05, global = -1.07371e-05, cumulative = 0.000266156
smoothSolver:  Solving for nuTilda, Initial residual = 0.0186602, Final residual = 0.00174897, No Iterations 2
ExecutionTime = 0.64483 s  ClockTime = 0 s

Time = 48s

smoothSolver:  Solving for Ux, Initial residual = 0.0160549, Final residual = 0.000430192, No Iterations 4
smoothSolver:  Solving for Uy, Initial residual = 0.0112938, Final residual = 0.000422975, No Iterations 4
GAMG:  Solving for p, Initial residual = 0.0990414, Final residual = 0.00853195, No Iterations 6
time step continuity errors : sum local = 4.18664e-05, global = -9.26421e-06, cumulative = 0.000256892
smoothSolver:  Solving for nuTilda, Initial residual = 0.0186088, Final residual = 0.0017215, No Iterations 2
ExecutionTime = 0.656826 s  ClockTime = 0 s

Time = 49s

smoothSolver:  Solving for Ux, Initial residual = 0.0159893, Final residual = 0.000425388, No Iterations 4
smoothSolver:  Solving for Uy, Initial residual = 0.0115318, Final residual = 0.000418662, No Iterations 4
GAMG:  Solving for p, Initial residual = 0.0905381, Final residual = 0.00783415, No Iterations 8
time step continuity errors : sum local = 4.04828e-05, global = -1.04082e-05, cumulative = 0.000246483
smoothSolver:  Solving for nuTilda, Initial residual = 0.01854, Final residual = 0.00168817, No Iterations 2
ExecutionTime = 0.668849 s  ClockTime = 0 s

Time = 50s

smoothSolver:  Solving for Ux, Initial residual = 0.0158462, Final residual = 0.000446784, No Iterations 4
smoothSolver:  Solving for Uy, Initial residual = 0.0118198, Final residual = 0.000424291, No Iterations 4
GAMG:  Solving for p, Initial residual = 0.0812855, Final residual = 0.00797139, No Iterations 7
time step continuity errors : sum local = 4.28715e-05, global = 1.01695e-05, cumulative = 0.000256653
smoothSolver:  Solving for nuTilda, Initial residual = 0.0184765, Final residual = 0.00165822, No Iterations 2
ExecutionTime = 0.698126 s  ClockTime = 0 s

Time = 51s

smoothSolver:  Solving for Ux, Initial residual = 0.0152224, Final residual = 0.000462695, No Iterations 4
smoothSolver:  Solving for Uy, Initial residual = 0.0117437, Final residual = 0.000439192, No Iterations 4
GAMG:  Solving for p, Initial residual = 0.0739203, Final residual = 0.00665974, No Iterations 7
time step continuity errors : sum local = 3.55572e-05, global = 8.09438e-06, cumulative = 0.000264747
smoothSolver:  Solving for nuTilda, Initial residual = 0.0183901, Final residual = 0.00162334, No Iterations 2
ExecutionTime = 0.709523 s  ClockTime = 0 s

Time = 52s

smoothSolver:  Solving for Ux, Initial residual = 0.0146437, Final residual = 0.000455146, No Iterations 4
smoothSolver:  Solving for Uy, Initial residual = 0.0113639, Final residual = 0.000455186, No Iterations 4
GAMG:  Solving for p, Initial residual = 0.0698081, Final residual = 0.00554929, No Iterations 6
time step continuity errors : sum local = 2.84801e-05, global = -5.61263e-06, cumulative = 0.000259135
smoothSolver:  Solving for nuTilda, Initial residual = 0.0183027, Final residual = 0.00158401, No Iterations 2
ExecutionTime = 0.718754 s  ClockTime = 0 s

Time = 53s

smoothSolver:  Solving for Ux, Initial residual = 0.0144464, Final residual = 0.00043957, No Iterations 4
smoothSolver:  Solving for Uy, Initial residual = 0.01064, Final residual = 0.000439807, No Iterations 4
GAMG:  Solving for p, Initial residual = 0.0670969, Final residual = 0.00531151, No Iterations 6
time step continuity errors : sum local = 2.62937e-05, global = 5.32294e-06, cumulative = 0.000264458
smoothSolver:  Solving for nuTilda, Initial residual = 0.0181689, Final residual = 0.00154623, No Iterations 2
ExecutionTime = 0.728505 s  ClockTime = 0 s

Time = 54s

smoothSolver:  Solving for Ux, Initial residual = 0.0144368, Final residual = 0.000424402, No Iterations 4
smoothSolver:  Solving for Uy, Initial residual = 0.00987624, Final residual = 0.000399118, No Iterations 4
GAMG:  Solving for p, Initial residual = 0.0660858, Final residual = 0.00611054, No Iterations 7
time step continuity errors : sum local = 2.98769e-05, global = -7.28327e-06, cumulative = 0.000257174
smoothSolver:  Solving for nuTilda, Initial residual = 0.0180556, Final residual = 0.00150604, No Iterations 2
ExecutionTime = 0.739007 s  ClockTime = 0 s

Time = 55s

smoothSolver:  Solving for Ux, Initial residual = 0.0141243, Final residual = 0.000404243, No Iterations 4
smoothSolver:  Solving for Uy, Initial residual = 0.00960802, Final residual = 0.000354999, No Iterations 4
GAMG:  Solving for p, Initial residual = 0.0605958, Final residual = 0.00468764, No Iterations 7
time step continuity errors : sum local = 2.34596e-05, global = -5.57569e-06, cumulative = 0.000251599
smoothSolver:  Solving for nuTilda, Initial residual = 0.017938, Final residual = 0.00146537, No Iterations 2
ExecutionTime = 0.749074 s  ClockTime = 0 s

Time = 56s

smoothSolver:  Solving for Ux, Initial residual = 0.0138188, Final residual = 0.000390549, No Iterations 4
smoothSolver:  Solving for Uy, Initial residual = 0.00967913, Final residual = 0.000343185, No Iterations 4
GAMG:  Solving for p, Initial residual = 0.0526103, Final residual = 0.00500489, No Iterations 5
time step continuity errors : sum local = 2.57839e-05, global = -6.66956e-06, cumulative = 0.000244929
smoothSolver:  Solving for nuTilda, Initial residual = 0.017842, Final residual = 0.00142832, No Iterations 2
ExecutionTime = 0.758768 s  ClockTime = 0 s

Time = 57s

smoothSolver:  Solving for Ux, Initial residual = 0.0134989, Final residual = 0.000389278, No Iterations 4
smoothSolver:  Solving for Uy, Initial residual = 0.00977593, Final residual = 0.000360536, No Iterations 4
GAMG:  Solving for p, Initial residual = 0.0473043, Final residual = 0.00402596, No Iterations 6
time step continuity errors : sum local = 2.0985e-05, global = 2.52923e-06, cumulative = 0.000247458
smoothSolver:  Solving for nuTilda, Initial residual = 0.0176957, Final residual = 0.00139211, No Iterations 2
ExecutionTime = 0.768819 s  ClockTime = 0 s

Time = 58s

smoothSolver:  Solving for Ux, Initial residual = 0.0132187, Final residual = 0.000393843, No Iterations 4
smoothSolver:  Solving for Uy, Initial residual = 0.0095516, Final residual = 0.000378608, No Iterations 4
GAMG:  Solving for p, Initial residual = 0.0454872, Final residual = 0.00358439, No Iterations 8
time step continuity errors : sum local = 1.83744e-05, global = -4.87944e-06, cumulative = 0.000242579
smoothSolver:  Solving for nuTilda, Initial residual = 0.0175768, Final residual = 0.00135838, No Iterations 2
ExecutionTime = 0.779153 s  ClockTime = 0 s

Time = 59s

smoothSolver:  Solving for Ux, Initial residual = 0.0128974, Final residual = 0.00039081, No Iterations 4
smoothSolver:  Solving for Uy, Initial residual = 0.00901692, Final residual = 0.000373291, No Iterations 4
GAMG:  Solving for p, Initial residual = 0.0458466, Final residual = 0.00444856, No Iterations 7
time step continuity errors : sum local = 2.21942e-05, global = 5.36078e-06, cumulative = 0.00024794
smoothSolver:  Solving for nuTilda, Initial residual = 0.0174526, Final residual = 0.00132735, No Iterations 2
ExecutionTime = 0.788739 s  ClockTime = 0 s

Time = 60s

smoothSolver:  Solving for Ux, Initial residual = 0.0125446, Final residual = 0.000382692, No Iterations 4
smoothSolver:  Solving for Uy, Initial residual = 0.00852869, Final residual = 0.000350631, No Iterations 4
GAMG:  Solving for p, Initial residual = 0.0442905, Final residual = 0.00422193, No Iterations 5
time step continuity errors : sum local = 2.07556e-05, global = 5.52482e-06, cumulative = 0.000253465
smoothSolver:  Solving for nuTilda, Initial residual = 0.0173257, Final residual = 0.00130376, No Iterations 2
ExecutionTime = 0.797976 s  ClockTime = 0 s

Time = 61s

smoothSolver:  Solving for Ux, Initial residual = 0.0121268, Final residual = 0.000368285, No Iterations 4
smoothSolver:  Solving for Uy, Initial residual = 0.0082285, Final residual = 0.000330074, No Iterations 4
GAMG:  Solving for p, Initial residual = 0.0411578, Final residual = 0.00343679, No Iterations 5
time step continuity errors : sum local = 1.69953e-05, global = 4.73715e-06, cumulative = 0.000258202
smoothSolver:  Solving for nuTilda, Initial residual = 0.0172783, Final residual = 0.00128287, No Iterations 2
ExecutionTime = 0.806981 s  ClockTime = 0 s

Time = 62s

smoothSolver:  Solving for Ux, Initial residual = 0.0117103, Final residual = 0.000350109, No Iterations 4
smoothSolver:  Solving for Uy, Initial residual = 0.00807131, Final residual = 0.000319807, No Iterations 4
GAMG:  Solving for p, Initial residual = 0.0375749, Final residual = 0.00290782, No Iterations 6
time step continuity errors : sum local = 1.46423e-05, global = -2.50311e-06, cumulative = 0.000255699
smoothSolver:  Solving for nuTilda, Initial residual = 0.017225, Final residual = 0.00126237, No Iterations 2
ExecutionTime = 0.816062 s  ClockTime = 0 s

Time = 63s

smoothSolver:  Solving for Ux, Initial residual = 0.0113384, Final residual = 0.000332707, No Iterations 4
smoothSolver:  Solving for Uy, Initial residual = 0.00794254, Final residual = 0.000321665, No Iterations 4
GAMG:  Solving for p, Initial residual = 0.0342555, Final residual = 0.0030129, No Iterations 6
time step continuity errors : sum local = 1.55689e-05, global = 1.34159e-06, cumulative = 0.00025704
smoothSolver:  Solving for nuTilda, Initial residual = 0.0171897, Final residual = 0.00125258, No Iterations 2
ExecutionTime = 0.825302 s  ClockTime = 0 s

Time = 64s

smoothSolver:  Solving for Ux, Initial residual = 0.0109225, Final residual = 0.000322969, No Iterations 4
smoothSolver:  Solving for Uy, Initial residual = 0.00776828, Final residual = 0.000324579, No Iterations 4
GAMG:  Solving for p, Initial residual = 0.0329772, Final residual = 0.00315033, No Iterations 5
time step continuity errors : sum local = 1.64337e-05, global = -4.39427e-06, cumulative = 0.000252646
smoothSolver:  Solving for nuTilda, Initial residual = 0.0173477, Final residual = 0.0012438, No Iterations 2
ExecutionTime = 0.834219 s  ClockTime = 0 s

Time = 65s

smoothSolver:  Solving for Ux, Initial residual = 0.0104702, Final residual = 0.00031324, No Iterations 4
smoothSolver:  Solving for Uy, Initial residual = 0.00748168, Final residual = 0.000318354, No Iterations 4
GAMG:  Solving for p, Initial residual = 0.0316877, Final residual = 0.00301228, No Iterations 5
time step continuity errors : sum local = 1.56517e-05, global = -3.87544e-06, cumulative = 0.00024877
smoothSolver:  Solving for nuTilda, Initial residual = 0.017572, Final residual = 0.00124227, No Iterations 2
ExecutionTime = 0.842647 s  ClockTime = 0 s

Time = 66s

smoothSolver:  Solving for Ux, Initial residual = 0.010013, Final residual = 0.000301526, No Iterations 4
smoothSolver:  Solving for Uy, Initial residual = 0.00715843, Final residual = 0.00030533, No Iterations 4
GAMG:  Solving for p, Initial residual = 0.0306958, Final residual = 0.00296519, No Iterations 5
time step continuity errors : sum local = 1.52441e-05, global = -1.3777e-06, cumulative = 0.000247393
smoothSolver:  Solving for nuTilda, Initial residual = 0.0178798, Final residual = 0.00123941, No Iterations 2
ExecutionTime = 0.851321 s  ClockTime = 0 s

Time = 67s

smoothSolver:  Solving for Ux, Initial residual = 0.00960096, Final residual = 0.000288781, No Iterations 4
smoothSolver:  Solving for Uy, Initial residual = 0.00687604, Final residual = 0.000291103, No Iterations 4
GAMG:  Solving for p, Initial residual = 0.0291137, Final residual = 0.00268283, No Iterations 4
time step continuity errors : sum local = 1.36619e-05, global = -1.8774e-06, cumulative = 0.000245515
smoothSolver:  Solving for nuTilda, Initial residual = 0.0182488, Final residual = 0.00124196, No Iterations 2
ExecutionTime = 0.859659 s  ClockTime = 0 s

Time = 68s

smoothSolver:  Solving for Ux, Initial residual = 0.00919485, Final residual = 0.000274031, No Iterations 4
smoothSolver:  Solving for Uy, Initial residual = 0.00656853, Final residual = 0.000271905, No Iterations 4
GAMG:  Solving for p, Initial residual = 0.0268144, Final residual = 0.00257245, No Iterations 5
time step continuity errors : sum local = 1.31085e-05, global = 3.17484e-06, cumulative = 0.00024869
smoothSolver:  Solving for nuTilda, Initial residual = 0.0186836, Final residual = 0.00123957, No Iterations 2
ExecutionTime = 0.868563 s  ClockTime = 0 s

Time = 69s

smoothSolver:  Solving for Ux, Initial residual = 0.00885724, Final residual = 0.000260478, No Iterations 4
smoothSolver:  Solving for Uy, Initial residual = 0.00624061, Final residual = 0.000256137, No Iterations 4
GAMG:  Solving for p, Initial residual = 0.0251823, Final residual = 0.00231754, No Iterations 5
time step continuity errors : sum local = 1.19097e-05, global = 3.23143e-06, cumulative = 0.000251922
smoothSolver:  Solving for nuTilda, Initial residual = 0.019077, Final residual = 0.00123516, No Iterations 2
ExecutionTime = 0.878682 s  ClockTime = 1 s

Time = 70s

smoothSolver:  Solving for Ux, Initial residual = 0.00852876, Final residual = 0.000247155, No Iterations 4
smoothSolver:  Solving for Uy, Initial residual = 0.00588089, Final residual = 0.000238564, No Iterations 4
GAMG:  Solving for p, Initial residual = 0.0239284, Final residual = 0.00183441, No Iterations 5
time step continuity errors : sum local = 9.57269e-06, global = 2.62081e-06, cumulative = 0.000254542
smoothSolver:  Solving for nuTilda, Initial residual = 0.0193698, Final residual = 0.00122289, No Iterations 2
ExecutionTime = 0.889287 s  ClockTime = 1 s

Time = 71s

smoothSolver:  Solving for Ux, Initial residual = 0.00820354, Final residual = 0.000234947, No Iterations 4
smoothSolver:  Solving for Uy, Initial residual = 0.00548992, Final residual = 0.000220541, No Iterations 4
GAMG:  Solving for p, Initial residual = 0.022585, Final residual = 0.00203478, No Iterations 4
time step continuity errors : sum local = 1.07833e-05, global = -1.21511e-06, cumulative = 0.000253327
smoothSolver:  Solving for nuTilda, Initial residual = 0.019566, Final residual = 0.00120945, No Iterations 2
ExecutionTime = 0.89892 s  ClockTime = 1 s

Time = 72s

smoothSolver:  Solving for Ux, Initial residual = 0.00785956, Final residual = 0.000222198, No Iterations 4
smoothSolver:  Solving for Uy, Initial residual = 0.00509501, Final residual = 0.000202249, No Iterations 4
GAMG:  Solving for p, Initial residual = 0.0213267, Final residual = 0.00177845, No Iterations 5
time step continuity errors : sum local = 9.52268e-06, global = 1.86305e-06, cumulative = 0.00025519
smoothSolver:  Solving for nuTilda, Initial residual = 0.0196011, Final residual = 0.00118823, No Iterations 2
ExecutionTime = 0.907962 s  ClockTime = 1 s

Time = 73s

smoothSolver:  Solving for Ux, Initial residual = 0.00751272, Final residual = 0.000210517, No Iterations 4
smoothSolver:  Solving for Uy, Initial residual = 0.00469312, Final residual = 0.000186853, No Iterations 4
GAMG:  Solving for p, Initial residual = 0.0198128, Final residual = 0.00157862, No Iterations 6
time step continuity errors : sum local = 8.48869e-06, global = -1.00355e-06, cumulative = 0.000254187
smoothSolver:  Solving for nuTilda, Initial residual = 0.0193557, Final residual = 0.0011641, No Iterations 2
ExecutionTime = 0.918637 s  ClockTime = 1 s

Time = 74s

smoothSolver:  Solving for Ux, Initial residual = 0.00716632, Final residual = 0.000198061, No Iterations 4
smoothSolver:  Solving for Uy, Initial residual = 0.00428262, Final residual = 0.000172086, No Iterations 4
GAMG:  Solving for p, Initial residual = 0.018649, Final residual = 0.00157893, No Iterations 6
time step continuity errors : sum local = 8.50224e-06, global = -4.20191e-07, cumulative = 0.000253767
smoothSolver:  Solving for nuTilda, Initial residual = 0.0189253, Final residual = 0.00114083, No Iterations 2
ExecutionTime = 0.928016 s  ClockTime = 1 s

Time = 75s

smoothSolver:  Solving for Ux, Initial residual = 0.00682146, Final residual = 0.000186126, No Iterations 4
smoothSolver:  Solving for Uy, Initial residual = 0.00388529, Final residual = 0.000157679, No Iterations 4
GAMG:  Solving for p, Initial residual = 0.0177346, Final residual = 0.00173735, No Iterations 5
time step continuity errors : sum local = 9.35472e-06, global = -8.60564e-07, cumulative = 0.000252906
smoothSolver:  Solving for nuTilda, Initial residual = 0.0183155, Final residual = 0.0011177, No Iterations 2
ExecutionTime = 0.937266 s  ClockTime = 1 s

Time = 76s

smoothSolver:  Solving for Ux, Initial residual = 0.00647777, Final residual = 0.000175706, No Iterations 4
smoothSolver:  Solving for Uy, Initial residual = 0.00351441, Final residual = 0.000144374, No Iterations 4
GAMG:  Solving for p, Initial residual = 0.0169063, Final residual = 0.00163952, No Iterations 4
time step continuity errors : sum local = 8.848e-06, global = 7.68619e-07, cumulative = 0.000253675
smoothSolver:  Solving for nuTilda, Initial residual = 0.0176089, Final residual = 0.00109455, No Iterations 2
ExecutionTime = 0.94711 s  ClockTime = 1 s

Time = 77s

smoothSolver:  Solving for Ux, Initial residual = 0.00613331, Final residual = 0.00016405, No Iterations 4
smoothSolver:  Solving for Uy, Initial residual = 0.00316099, Final residual = 0.000131395, No Iterations 4
GAMG:  Solving for p, Initial residual = 0.0158747, Final residual = 0.00148623, No Iterations 4
time step continuity errors : sum local = 8.05789e-06, global = 1.10726e-06, cumulative = 0.000254782
smoothSolver:  Solving for nuTilda, Initial residual = 0.0168893, Final residual = 0.0010755, No Iterations 2
ExecutionTime = 0.956398 s  ClockTime = 1 s

Time = 78s

smoothSolver:  Solving for Ux, Initial residual = 0.00578154, Final residual = 0.000153039, No Iterations 4
smoothSolver:  Solving for Uy, Initial residual = 0.00285067, Final residual = 0.000120521, No Iterations 4
GAMG:  Solving for p, Initial residual = 0.0145721, Final residual = 0.00130732, No Iterations 4
time step continuity errors : sum local = 7.13906e-06, global = 9.17474e-07, cumulative = 0.000255699
smoothSolver:  Solving for nuTilda, Initial residual = 0.0161378, Final residual = 0.00105959, No Iterations 2
ExecutionTime = 0.964879 s  ClockTime = 1 s

Time = 79s

smoothSolver:  Solving for Ux, Initial residual = 0.00544752, Final residual = 0.000543898, No Iterations 2
smoothSolver:  Solving for Uy, Initial residual = 0.00259878, Final residual = 0.000112198, No Iterations 4
GAMG:  Solving for p, Initial residual = 0.0133335, Final residual = 0.00120064, No Iterations 4
time step continuity errors : sum local = 6.61325e-06, global = 7.46906e-07, cumulative = 0.000256446
smoothSolver:  Solving for nuTilda, Initial residual = 0.0155298, Final residual = 0.00104577, No Iterations 2
ExecutionTime = 0.973391 s  ClockTime = 1 s

Time = 80s

smoothSolver:  Solving for Ux, Initial residual = 0.00515561, Final residual = 0.000137295, No Iterations 4
smoothSolver:  Solving for Uy, Initial residual = 0.0023818, Final residual = 0.000104636, No Iterations 4
GAMG:  Solving for p, Initial residual = 0.0123304, Final residual = 0.00122711, No Iterations 4
time step continuity errors : sum local = 6.82785e-06, global = -5.49101e-07, cumulative = 0.000255897
smoothSolver:  Solving for nuTilda, Initial residual = 0.0149724, Final residual = 0.00103595, No Iterations 2
ExecutionTime = 0.981907 s  ClockTime = 1 s

Time = 81s

smoothSolver:  Solving for Ux, Initial residual = 0.00484232, Final residual = 0.000127726, No Iterations 4
smoothSolver:  Solving for Uy, Initial residual = 0.00221496, Final residual = 9.93591e-05, No Iterations 4
GAMG:  Solving for p, Initial residual = 0.0115442, Final residual = 0.000873225, No Iterations 6
time step continuity errors : sum local = 4.89142e-06, global = -8.53342e-07, cumulative = 0.000255044
smoothSolver:  Solving for nuTilda, Initial residual = 0.0145572, Final residual = 0.00103024, No Iterations 2
ExecutionTime = 0.992197 s  ClockTime = 1 s

Time = 82s

smoothSolver:  Solving for Ux, Initial residual = 0.00454574, Final residual = 0.000450001, No Iterations 2
smoothSolver:  Solving for Uy, Initial residual = 0.00207287, Final residual = 9.62867e-05, No Iterations 4
GAMG:  Solving for p, Initial residual = 0.0105365, Final residual = 0.000916513, No Iterations 6
time step continuity errors : sum local = 5.14906e-06, global = -5.71135e-07, cumulative = 0.000254473
smoothSolver:  Solving for nuTilda, Initial residual = 0.0143421, Final residual = 0.00102624, No Iterations 2
ExecutionTime = 1.00248 s  ClockTime = 1 s

Time = 83s

smoothSolver:  Solving for Ux, Initial residual = 0.00430396, Final residual = 0.000427011, No Iterations 2
smoothSolver:  Solving for Uy, Initial residual = 0.00191834, Final residual = 9.22592e-05, No Iterations 4
GAMG:  Solving for p, Initial residual = 0.00971583, Final residual = 0.00081547, No Iterations 6
time step continuity errors : sum local = 4.59297e-06, global = -1.34578e-07, cumulative = 0.000254338
smoothSolver:  Solving for nuTilda, Initial residual = 0.0142139, Final residual = 0.00102532, No Iterations 2
ExecutionTime = 1.01394 s  ClockTime = 1 s

Time = 84s

smoothSolver:  Solving for Ux, Initial residual = 0.00407527, Final residual = 0.000404843, No Iterations 2
smoothSolver:  Solving for Uy, Initial residual = 0.00176908, Final residual = 8.75492e-05, No Iterations 4
GAMG:  Solving for p, Initial residual = 0.00888937, Final residual = 0.000809727, No Iterations 5
time step continuity errors : sum local = 4.5729e-06, global = -6.42405e-07, cumulative = 0.000253696
smoothSolver:  Solving for nuTilda, Initial residual = 0.0141759, Final residual = 0.00102851, No Iterations 2
ExecutionTime = 1.025 s  ClockTime = 1 s

Time = 85s

smoothSolver:  Solving for Ux, Initial residual = 0.00385089, Final residual = 0.000380409, No Iterations 2
smoothSolver:  Solving for Uy, Initial residual = 0.00166424, Final residual = 8.21322e-05, No Iterations 4
GAMG:  Solving for p, Initial residual = 0.00799136, Final residual = 0.000713162, No Iterations 4
time step continuity errors : sum local = 4.04267e-06, global = 7.4592e-07, cumulative = 0.000254442
smoothSolver:  Solving for nuTilda, Initial residual = 0.0142875, Final residual = 0.00103416, No Iterations 2
ExecutionTime = 1.03369 s  ClockTime = 1 s

Time = 86s

smoothSolver:  Solving for Ux, Initial residual = 0.00363949, Final residual = 0.000356134, No Iterations 2
smoothSolver:  Solving for Uy, Initial residual = 0.00155771, Final residual = 7.56288e-05, No Iterations 4
GAMG:  Solving for p, Initial residual = 0.00723055, Final residual = 0.000647436, No Iterations 4
time step continuity errors : sum local = 3.68329e-06, global = 8.0007e-07, cumulative = 0.000255242
smoothSolver:  Solving for nuTilda, Initial residual = 0.0145056, Final residual = 0.00104163, No Iterations 2
ExecutionTime = 1.04194 s  ClockTime = 1 s

Time = 87s

smoothSolver:  Solving for Ux, Initial residual = 0.00345053, Final residual = 0.000334884, No Iterations 2
smoothSolver:  Solving for Uy, Initial residual = 0.00147037, Final residual = 7.02681e-05, No Iterations 4
GAMG:  Solving for p, Initial residual = 0.00658876, Final residual = 0.000565324, No Iterations 5
time step continuity errors : sum local = 3.22945e-06, global = -7.0141e-07, cumulative = 0.00025454
smoothSolver:  Solving for nuTilda, Initial residual = 0.0147951, Final residual = 0.00105211, No Iterations 2
ExecutionTime = 1.0514 s  ClockTime = 1 s

Time = 88s

smoothSolver:  Solving for Ux, Initial residual = 0.00328374, Final residual = 0.000317916, No Iterations 2
smoothSolver:  Solving for Uy, Initial residual = 0.00139718, Final residual = 6.6243e-05, No Iterations 4
GAMG:  Solving for p, Initial residual = 0.00612894, Final residual = 0.000604426, No Iterations 5
time step continuity errors : sum local = 3.4695e-06, global = -7.58266e-07, cumulative = 0.000253782
smoothSolver:  Solving for nuTilda, Initial residual = 0.0151766, Final residual = 0.00106397, No Iterations 2
ExecutionTime = 1.0601 s  ClockTime = 1 s

Time = 89s

smoothSolver:  Solving for Ux, Initial residual = 0.00314553, Final residual = 0.000304149, No Iterations 2
smoothSolver:  Solving for Uy, Initial residual = 0.00132387, Final residual = 6.30172e-05, No Iterations 4
GAMG:  Solving for p, Initial residual = 0.00579614, Final residual = 0.000497302, No Iterations 6
time step continuity errors : sum local = 2.86551e-06, global = 2.17679e-07, cumulative = 0.000254
smoothSolver:  Solving for nuTilda, Initial residual = 0.0155681, Final residual = 0.00107652, No Iterations 2
ExecutionTime = 1.06995 s  ClockTime = 1 s

Time = 90s

smoothSolver:  Solving for Ux, Initial residual = 0.00302352, Final residual = 0.000290556, No Iterations 2
smoothSolver:  Solving for Uy, Initial residual = 0.00124687, Final residual = 5.94343e-05, No Iterations 4
GAMG:  Solving for p, Initial residual = 0.00539668, Final residual = 0.000534614, No Iterations 5
time step continuity errors : sum local = 3.08733e-06, global = -8.18692e-07, cumulative = 0.000253181
smoothSolver:  Solving for nuTilda, Initial residual = 0.016028, Final residual = 0.0010908, No Iterations 2
ExecutionTime = 1.07872 s  ClockTime = 1 s

Time = 91s

smoothSolver:  Solving for Ux, Initial residual = 0.00290575, Final residual = 0.000275632, No Iterations 2
smoothSolver:  Solving for Uy, Initial residual = 0.00117442, Final residual = 5.56281e-05, No Iterations 4
GAMG:  Solving for p, Initial residual = 0.00500636, Final residual = 0.000490755, No Iterations 5
time step continuity errors : sum local = 2.83905e-06, global = -6.21677e-07, cumulative = 0.000252559
smoothSolver:  Solving for nuTilda, Initial residual = 0.0165578, Final residual = 0.00110428, No Iterations 2
ExecutionTime = 1.08778 s  ClockTime = 1 s

Time = 92s

smoothSolver:  Solving for Ux, Initial residual = 0.00278287, Final residual = 0.000260523, No Iterations 2
smoothSolver:  Solving for Uy, Initial residual = 0.00110562, Final residual = 5.18588e-05, No Iterations 4
GAMG:  Solving for p, Initial residual = 0.00463151, Final residual = 0.000457241, No Iterations 5
time step continuity errors : sum local = 2.64869e-06, global = -5.79347e-07, cumulative = 0.00025198
smoothSolver:  Solving for nuTilda, Initial residual = 0.0171083, Final residual = 0.00111723, No Iterations 2
ExecutionTime = 1.09647 s  ClockTime = 1 s

Time = 93s

smoothSolver:  Solving for Ux, Initial residual = 0.00265728, Final residual = 0.000245881, No Iterations 2
smoothSolver:  Solving for Uy, Initial residual = 0.00103751, Final residual = 4.82834e-05, No Iterations 4
GAMG:  Solving for p, Initial residual = 0.00431914, Final residual = 0.000411643, No Iterations 5
time step continuity errors : sum local = 2.38788e-06, global = -5.08633e-07, cumulative = 0.000251471
smoothSolver:  Solving for nuTilda, Initial residual = 0.0177103, Final residual = 0.00112965, No Iterations 2
ExecutionTime = 1.10478 s  ClockTime = 1 s

Time = 94s

smoothSolver:  Solving for Ux, Initial residual = 0.00253821, Final residual = 0.000233015, No Iterations 2
smoothSolver:  Solving for Uy, Initial residual = 0.00097253, Final residual = 4.53008e-05, No Iterations 4
GAMG:  Solving for p, Initial residual = 0.0041125, Final residual = 0.000383675, No Iterations 6
time step continuity errors : sum local = 2.22923e-06, global = 4.99519e-07, cumulative = 0.000251971
smoothSolver:  Solving for nuTilda, Initial residual = 0.0183692, Final residual = 0.0011395, No Iterations 2
ExecutionTime = 1.11402 s  ClockTime = 1 s

Time = 95s

smoothSolver:  Solving for Ux, Initial residual = 0.00243456, Final residual = 0.000222893, No Iterations 2
smoothSolver:  Solving for Uy, Initial residual = 0.000915918, Final residual = 4.30511e-05, No Iterations 4
GAMG:  Solving for p, Initial residual = 0.00395069, Final residual = 0.000368649, No Iterations 6
time step continuity errors : sum local = 2.14521e-06, global = 5.03862e-07, cumulative = 0.000252475
smoothSolver:  Solving for nuTilda, Initial residual = 0.0190847, Final residual = 0.00114736, No Iterations 2
ExecutionTime = 1.12291 s  ClockTime = 1 s

Time = 96s

smoothSolver:  Solving for Ux, Initial residual = 0.00233719, Final residual = 0.000214986, No Iterations 2
smoothSolver:  Solving for Uy, Initial residual = 0.000870406, Final residual = 4.14825e-05, No Iterations 4
GAMG:  Solving for p, Initial residual = 0.00376564, Final residual = 0.000370636, No Iterations 6
time step continuity errors : sum local = 2.16037e-06, global = 4.90201e-07, cumulative = 0.000252965
smoothSolver:  Solving for nuTilda, Initial residual = 0.0198746, Final residual = 0.00115343, No Iterations 2
ExecutionTime = 1.1327 s  ClockTime = 1 s

Time = 97s

smoothSolver:  Solving for Ux, Initial residual = 0.00224196, Final residual = 0.000208653, No Iterations 2
smoothSolver:  Solving for Uy, Initial residual = 0.000835021, Final residual = 4.0136e-05, No Iterations 4
GAMG:  Solving for p, Initial residual = 0.00352747, Final residual = 0.000345264, No Iterations 6
time step continuity errors : sum local = 2.01578e-06, global = 4.40586e-07, cumulative = 0.000253406
smoothSolver:  Solving for nuTilda, Initial residual = 0.0207301, Final residual = 0.00115679, No Iterations 2
ExecutionTime = 1.14216 s  ClockTime = 1 s

Time = 98s

smoothSolver:  Solving for Ux, Initial residual = 0.00214632, Final residual = 0.000202576, No Iterations 2
smoothSolver:  Solving for Uy, Initial residual = 0.000802748, Final residual = 3.87798e-05, No Iterations 4
GAMG:  Solving for p, Initial residual = 0.00326418, Final residual = 0.000308099, No Iterations 5
time step continuity errors : sum local = 1.80153e-06, global = -4.93004e-07, cumulative = 0.000252913
smoothSolver:  Solving for nuTilda, Initial residual = 0.0217007, Final residual = 0.00115983, No Iterations 2
ExecutionTime = 1.15117 s  ClockTime = 1 s

Time = 99s

smoothSolver:  Solving for Ux, Initial residual = 0.00204929, Final residual = 0.000195981, No Iterations 2
smoothSolver:  Solving for Uy, Initial residual = 0.000773763, Final residual = 3.74152e-05, No Iterations 4
GAMG:  Solving for p, Initial residual = 0.00303565, Final residual = 0.000231817, No Iterations 5
time step continuity errors : sum local = 1.35763e-06, global = -2.71284e-07, cumulative = 0.000252641
smoothSolver:  Solving for nuTilda, Initial residual = 0.0227488, Final residual = 0.00116056, No Iterations 2
ExecutionTime = 1.15993 s  ClockTime = 1 s

Time = 100s

smoothSolver:  Solving for Ux, Initial residual = 0.0019593, Final residual = 0.000189801, No Iterations 2
smoothSolver:  Solving for Uy, Initial residual = 0.000749008, Final residual = 3.60885e-05, No Iterations 4
GAMG:  Solving for p, Initial residual = 0.00287455, Final residual = 0.000218749, No Iterations 5
time step continuity errors : sum local = 1.28273e-06, global = 9.39926e-08, cumulative = 0.000252735
smoothSolver:  Solving for nuTilda, Initial residual = 0.0239296, Final residual = 0.00115982, No Iterations 2
ExecutionTime = 1.18581 s  ClockTime = 1 s

Time = 101s

smoothSolver:  Solving for Ux, Initial residual = 0.00187448, Final residual = 0.000183498, No Iterations 2
smoothSolver:  Solving for Uy, Initial residual = 0.00072455, Final residual = 3.45107e-05, No Iterations 4
GAMG:  Solving for p, Initial residual = 0.00276158, Final residual = 0.000214017, No Iterations 5
time step continuity errors : sum local = 1.25623e-06, global = -3.49844e-08, cumulative = 0.0002527
smoothSolver:  Solving for nuTilda, Initial residual = 0.0252, Final residual = 0.00115812, No Iterations 2
ExecutionTime = 1.19486 s  ClockTime = 1 s

Time = 102s

smoothSolver:  Solving for Ux, Initial residual = 0.00179156, Final residual = 0.000177318, No Iterations 2
smoothSolver:  Solving for Uy, Initial residual = 0.000697122, Final residual = 3.29457e-05, No Iterations 4
GAMG:  Solving for p, Initial residual = 0.00263447, Final residual = 0.000237715, No Iterations 5
time step continuity errors : sum local = 1.39682e-06, global = -5.89514e-09, cumulative = 0.000252694
smoothSolver:  Solving for nuTilda, Initial residual = 0.0265153, Final residual = 0.00115267, No Iterations 2
ExecutionTime = 1.20332 s  ClockTime = 1 s

Time = 103s

smoothSolver:  Solving for Ux, Initial residual = 0.0017142, Final residual = 4.62607e-05, No Iterations 4
smoothSolver:  Solving for Uy, Initial residual = 0.000671174, Final residual = 3.13733e-05, No Iterations 4
GAMG:  Solving for p, Initial residual = 0.0025463, Final residual = 0.000241795, No Iterations 5
time step continuity errors : sum local = 1.42243e-06, global = 2.27707e-08, cumulative = 0.000252717
smoothSolver:  Solving for nuTilda, Initial residual = 0.0276945, Final residual = 0.00113822, No Iterations 2
ExecutionTime = 1.2123 s  ClockTime = 1 s

Time = 104s

smoothSolver:  Solving for Ux, Initial residual = 0.00163769, Final residual = 4.42689e-05, No Iterations 4
smoothSolver:  Solving for Uy, Initial residual = 0.000646451, Final residual = 2.99613e-05, No Iterations 4
GAMG:  Solving for p, Initial residual = 0.00241339, Final residual = 0.00023951, No Iterations 5
time step continuity errors : sum local = 1.40989e-06, global = 1.73351e-08, cumulative = 0.000252734
smoothSolver:  Solving for nuTilda, Initial residual = 0.0280217, Final residual = 0.00108656, No Iterations 2
ExecutionTime = 1.22048 s  ClockTime = 1 s

Time = 105s

smoothSolver:  Solving for Ux, Initial residual = 0.00156743, Final residual = 4.25216e-05, No Iterations 4
smoothSolver:  Solving for Uy, Initial residual = 0.000622616, Final residual = 2.89324e-05, No Iterations 4
GAMG:  Solving for p, Initial residual = 0.00226543, Final residual = 0.000217661, No Iterations 6
time step continuity errors : sum local = 1.28229e-06, global = -8.6707e-08, cumulative = 0.000252648
smoothSolver:  Solving for nuTilda, Initial residual = 0.0268829, Final residual = 0.000982105, No Iterations 2
ExecutionTime = 1.22942 s  ClockTime = 1 s

Time = 106s

smoothSolver:  Solving for Ux, Initial residual = 0.00150524, Final residual = 4.07706e-05, No Iterations 4
smoothSolver:  Solving for Uy, Initial residual = 0.00060199, Final residual = 2.77535e-05, No Iterations 4
GAMG:  Solving for p, Initial residual = 0.00215909, Final residual = 0.000208054, No Iterations 5
time step continuity errors : sum local = 1.22737e-06, global = 1.09141e-07, cumulative = 0.000252757
smoothSolver:  Solving for nuTilda, Initial residual = 0.0251432, Final residual = 0.000867603, No Iterations 2
ExecutionTime = 1.23769 s  ClockTime = 1 s

Time = 107s

smoothSolver:  Solving for Ux, Initial residual = 0.00145077, Final residual = 3.91228e-05, No Iterations 4
smoothSolver:  Solving for Uy, Initial residual = 0.000584506, Final residual = 2.66696e-05, No Iterations 4
GAMG:  Solving for p, Initial residual = 0.00208134, Final residual = 0.000177813, No Iterations 5
time step continuity errors : sum local = 1.05082e-06, global = 9.24458e-08, cumulative = 0.000252849
smoothSolver:  Solving for nuTilda, Initial residual = 0.0232549, Final residual = 0.000760115, No Iterations 2
ExecutionTime = 1.24641 s  ClockTime = 1 s

Time = 108s

smoothSolver:  Solving for Ux, Initial residual = 0.00140127, Final residual = 3.75618e-05, No Iterations 4
smoothSolver:  Solving for Uy, Initial residual = 0.00056977, Final residual = 2.55664e-05, No Iterations 4
GAMG:  Solving for p, Initial residual = 0.00201607, Final residual = 0.000170329, No Iterations 5
time step continuity errors : sum local = 1.00846e-06, global = 9.9461e-08, cumulative = 0.000252949
smoothSolver:  Solving for nuTilda, Initial residual = 0.0212483, Final residual = 0.000661694, No Iterations 2
ExecutionTime = 1.25612 s  ClockTime = 1 s

Time = 109s

smoothSolver:  Solving for Ux, Initial residual = 0.00135283, Final residual = 0.000135015, No Iterations 2
smoothSolver:  Solving for Uy, Initial residual = 0.000557018, Final residual = 2.4671e-05, No Iterations 4
GAMG:  Solving for p, Initial residual = 0.0019347, Final residual = 0.000176536, No Iterations 5
time step continuity errors : sum local = 1.0469e-06, global = 3.21435e-08, cumulative = 0.000252981
smoothSolver:  Solving for nuTilda, Initial residual = 0.0191621, Final residual = 0.000572722, No Iterations 2
ExecutionTime = 1.26463 s  ClockTime = 1 s

Time = 110s

smoothSolver:  Solving for Ux, Initial residual = 0.00131066, Final residual = 3.49459e-05, No Iterations 4
smoothSolver:  Solving for Uy, Initial residual = 0.000545952, Final residual = 2.39675e-05, No Iterations 4
GAMG:  Solving for p, Initial residual = 0.00188013, Final residual = 0.000162744, No Iterations 6
time step continuity errors : sum local = 9.66886e-07, global = -2.23173e-07, cumulative = 0.000252758
smoothSolver:  Solving for nuTilda, Initial residual = 0.0170427, Final residual = 0.00049609, No Iterations 2
ExecutionTime = 1.2757 s  ClockTime = 1 s

Time = 111s

smoothSolver:  Solving for Ux, Initial residual = 0.00126636, Final residual = 0.000125291, No Iterations 2
smoothSolver:  Solving for Uy, Initial residual = 0.000538543, Final residual = 2.34394e-05, No Iterations 4
GAMG:  Solving for p, Initial residual = 0.00175497, Final residual = 0.000156764, No Iterations 6
time step continuity errors : sum local = 9.32344e-07, global = -1.99652e-07, cumulative = 0.000252558
smoothSolver:  Solving for nuTilda, Initial residual = 0.0149496, Final residual = 0.000430033, No Iterations 2
ExecutionTime = 1.28434 s  ClockTime = 1 s

Time = 112s

smoothSolver:  Solving for Ux, Initial residual = 0.001226, Final residual = 0.000120933, No Iterations 2
smoothSolver:  Solving for Uy, Initial residual = 0.000531405, Final residual = 2.28876e-05, No Iterations 4
GAMG:  Solving for p, Initial residual = 0.00164221, Final residual = 0.000159452, No Iterations 5
time step continuity errors : sum local = 9.49414e-07, global = 1.52599e-07, cumulative = 0.000252711
smoothSolver:  Solving for nuTilda, Initial residual = 0.0128862, Final residual = 0.000375894, No Iterations 2
ExecutionTime = 1.29326 s  ClockTime = 1 s

Time = 113s

smoothSolver:  Solving for Ux, Initial residual = 0.00118783, Final residual = 0.000117081, No Iterations 2
smoothSolver:  Solving for Uy, Initial residual = 0.000524514, Final residual = 2.24372e-05, No Iterations 4
GAMG:  Solving for p, Initial residual = 0.00154464, Final residual = 0.000128834, No Iterations 5
time step continuity errors : sum local = 7.68003e-07, global = 6.61287e-08, cumulative = 0.000252777
smoothSolver:  Solving for nuTilda, Initial residual = 0.0109866, Final residual = 0.000332159, No Iterations 2
ExecutionTime = 1.30167 s  ClockTime = 1 s

Time = 114s

smoothSolver:  Solving for Ux, Initial residual = 0.00115362, Final residual = 0.000113319, No Iterations 2
smoothSolver:  Solving for Uy, Initial residual = 0.000517049, Final residual = 2.19693e-05, No Iterations 4
GAMG:  Solving for p, Initial residual = 0.00148651, Final residual = 0.000144042, No Iterations 4
time step continuity errors : sum local = 8.59755e-07, global = -5.05822e-08, cumulative = 0.000252726
smoothSolver:  Solving for nuTilda, Initial residual = 0.00923387, Final residual = 0.000298036, No Iterations 2
ExecutionTime = 1.30981 s  ClockTime = 1 s

Time = 115s

smoothSolver:  Solving for Ux, Initial residual = 0.00112333, Final residual = 0.00010933, No Iterations 2
smoothSolver:  Solving for Uy, Initial residual = 0.000508427, Final residual = 2.13644e-05, No Iterations 4
GAMG:  Solving for p, Initial residual = 0.00142925, Final residual = 0.000116675, No Iterations 5
time step continuity errors : sum local = 6.97263e-07, global = 2.15674e-08, cumulative = 0.000252748
smoothSolver:  Solving for nuTilda, Initial residual = 0.00767957, Final residual = 0.00027199, No Iterations 2
ExecutionTime = 1.31841 s  ClockTime = 1 s

Time = 116s

smoothSolver:  Solving for Ux, Initial residual = 0.00109287, Final residual = 0.000105975, No Iterations 2
smoothSolver:  Solving for Uy, Initial residual = 0.000505201, Final residual = 2.12142e-05, No Iterations 4
GAMG:  Solving for p, Initial residual = 0.00137937, Final residual = 0.000121641, No Iterations 5
time step continuity errors : sum local = 7.27755e-07, global = -4.2331e-08, cumulative = 0.000252706
smoothSolver:  Solving for nuTilda, Initial residual = 0.00637315, Final residual = 0.000252109, No Iterations 2
ExecutionTime = 1.32734 s  ClockTime = 1 s

Time = 117s

smoothSolver:  Solving for Ux, Initial residual = 0.00106387, Final residual = 0.000102614, No Iterations 2
smoothSolver:  Solving for Uy, Initial residual = 0.000502232, Final residual = 2.10466e-05, No Iterations 4
GAMG:  Solving for p, Initial residual = 0.00134027, Final residual = 0.000121193, No Iterations 5
time step continuity errors : sum local = 7.25807e-07, global = -4.97806e-08, cumulative = 0.000252656
smoothSolver:  Solving for nuTilda, Initial residual = 0.00525366, Final residual = 0.000236923, No Iterations 2
ExecutionTime = 1.33597 s  ClockTime = 1 s

Time = 118s

smoothSolver:  Solving for Ux, Initial residual = 0.00103671, Final residual = 9.91517e-05, No Iterations 2
smoothSolver:  Solving for Uy, Initial residual = 0.000498076, Final residual = 2.07983e-05, No Iterations 4
GAMG:  Solving for p, Initial residual = 0.00130533, Final residual = 0.000114901, No Iterations 5
time step continuity errors : sum local = 6.88758e-07, global = -3.69647e-08, cumulative = 0.000252619
smoothSolver:  Solving for nuTilda, Initial residual = 0.00438589, Final residual = 0.000225201, No Iterations 2
ExecutionTime = 1.34453 s  ClockTime = 1 s

Time = 119s

smoothSolver:  Solving for Ux, Initial residual = 0.00101177, Final residual = 9.57648e-05, No Iterations 2
smoothSolver:  Solving for Uy, Initial residual = 0.000493083, Final residual = 2.04936e-05, No Iterations 4
GAMG:  Solving for p, Initial residual = 0.00126646, Final residual = 0.000106989, No Iterations 5
time step continuity errors : sum local = 6.41892e-07, global = 3.69793e-09, cumulative = 0.000252622
smoothSolver:  Solving for nuTilda, Initial residual = 0.00367709, Final residual = 0.000216471, No Iterations 2
ExecutionTime = 1.35408 s  ClockTime = 1 s

Time = 120s

smoothSolver:  Solving for Ux, Initial residual = 0.00098753, Final residual = 9.26611e-05, No Iterations 2
smoothSolver:  Solving for Uy, Initial residual = 0.000487912, Final residual = 2.01655e-05, No Iterations 4
GAMG:  Solving for p, Initial residual = 0.00122348, Final residual = 0.000100411, No Iterations 5
time step continuity errors : sum local = 6.02948e-07, global = 1.80635e-08, cumulative = 0.000252641
smoothSolver:  Solving for nuTilda, Initial residual = 0.00313102, Final residual = 0.000209088, No Iterations 2
ExecutionTime = 1.36304 s  ClockTime = 1 s

Time = 121s

smoothSolver:  Solving for Ux, Initial residual = 0.000964282, Final residual = 8.9872e-05, No Iterations 2
smoothSolver:  Solving for Uy, Initial residual = 0.000482331, Final residual = 1.98533e-05, No Iterations 4
GAMG:  Solving for p, Initial residual = 0.00118364, Final residual = 9.39762e-05, No Iterations 5
time step continuity errors : sum local = 5.64792e-07, global = 2.56032e-08, cumulative = 0.000252666
smoothSolver:  Solving for nuTilda, Initial residual = 0.00271871, Final residual = 0.000202835, No Iterations 2
ExecutionTime = 1.37233 s  ClockTime = 1 s

Time = 122s

smoothSolver:  Solving for Ux, Initial residual = 0.00094179, Final residual = 8.73031e-05, No Iterations 2
smoothSolver:  Solving for Uy, Initial residual = 0.000476145, Final residual = 1.96116e-05, No Iterations 4
GAMG:  Solving for p, Initial residual = 0.0011461, Final residual = 8.73114e-05, No Iterations 5
time step continuity errors : sum local = 5.25181e-07, global = 2.84763e-08, cumulative = 0.000252695
smoothSolver:  Solving for nuTilda, Initial residual = 0.00241183, Final residual = 0.000197058, No Iterations 2
ExecutionTime = 1.38129 s  ClockTime = 1 s

Time = 123s

smoothSolver:  Solving for Ux, Initial residual = 0.000919801, Final residual = 8.48562e-05, No Iterations 2
smoothSolver:  Solving for Uy, Initial residual = 0.000470514, Final residual = 1.93855e-05, No Iterations 4
GAMG:  Solving for p, Initial residual = 0.00111394, Final residual = 0.000109251, No Iterations 4
time step continuity errors : sum local = 6.5769e-07, global = -6.60926e-08, cumulative = 0.000252629
smoothSolver:  Solving for nuTilda, Initial residual = 0.00218106, Final residual = 0.000191924, No Iterations 2
ExecutionTime = 1.38967 s  ClockTime = 1 s

Time = 124s

smoothSolver:  Solving for Ux, Initial residual = 0.000898262, Final residual = 8.23189e-05, No Iterations 2
smoothSolver:  Solving for Uy, Initial residual = 0.000463317, Final residual = 1.89892e-05, No Iterations 4
GAMG:  Solving for p, Initial residual = 0.00107866, Final residual = 8.80475e-05, No Iterations 5
time step continuity errors : sum local = 5.30481e-07, global = 4.73023e-08, cumulative = 0.000252676
smoothSolver:  Solving for nuTilda, Initial residual = 0.00201184, Final residual = 0.000186783, No Iterations 2
ExecutionTime = 1.39817 s  ClockTime = 1 s

Time = 125s

smoothSolver:  Solving for Ux, Initial residual = 0.000877415, Final residual = 8.02875e-05, No Iterations 2
smoothSolver:  Solving for Uy, Initial residual = 0.000458719, Final residual = 1.88628e-05, No Iterations 4
GAMG:  Solving for p, Initial residual = 0.0010558, Final residual = 8.77648e-05, No Iterations 5
time step continuity errors : sum local = 5.29196e-07, global = 4.58959e-08, cumulative = 0.000252722
smoothSolver:  Solving for nuTilda, Initial residual = 0.00188691, Final residual = 0.00018155, No Iterations 2
ExecutionTime = 1.40658 s  ClockTime = 1 s

Time = 126s

smoothSolver:  Solving for Ux, Initial residual = 0.000857459, Final residual = 7.82828e-05, No Iterations 2
smoothSolver:  Solving for Uy, Initial residual = 0.000453252, Final residual = 1.86576e-05, No Iterations 4
GAMG:  Solving for p, Initial residual = 0.0010413, Final residual = 8.61437e-05, No Iterations 5
time step continuity errors : sum local = 5.1983e-07, global = 5.72151e-08, cumulative = 0.000252779
smoothSolver:  Solving for nuTilda, Initial residual = 0.00179984, Final residual = 0.000176193, No Iterations 2
ExecutionTime = 1.41527 s  ClockTime = 1 s

Time = 127s

smoothSolver:  Solving for Ux, Initial residual = 0.000838079, Final residual = 7.62226e-05, No Iterations 2
smoothSolver:  Solving for Uy, Initial residual = 0.000446104, Final residual = 1.83401e-05, No Iterations 4
GAMG:  Solving for p, Initial residual = 0.0010249, Final residual = 8.42639e-05, No Iterations 5
time step continuity errors : sum local = 5.08876e-07, global = 6.31198e-08, cumulative = 0.000252842
smoothSolver:  Solving for nuTilda, Initial residual = 0.00172966, Final residual = 0.000170806, No Iterations 2
ExecutionTime = 1.42372 s  ClockTime = 1 s

Time = 128s

smoothSolver:  Solving for Ux, Initial residual = 0.00081914, Final residual = 7.4193e-05, No Iterations 2
smoothSolver:  Solving for Uy, Initial residual = 0.000437793, Final residual = 1.79664e-05, No Iterations 4
GAMG:  Solving for p, Initial residual = 0.00100153, Final residual = 8.20708e-05, No Iterations 5
time step continuity errors : sum local = 4.96003e-07, global = 6.3582e-08, cumulative = 0.000252906
smoothSolver:  Solving for nuTilda, Initial residual = 0.00167249, Final residual = 0.00016524, No Iterations 2
ExecutionTime = 1.43473 s  ClockTime = 1 s

Time = 129s

smoothSolver:  Solving for Ux, Initial residual = 0.000800779, Final residual = 7.22811e-05, No Iterations 2
smoothSolver:  Solving for Uy, Initial residual = 0.00042916, Final residual = 1.75935e-05, No Iterations 4
GAMG:  Solving for p, Initial residual = 0.000975069, Final residual = 7.95941e-05, No Iterations 5
time step continuity errors : sum local = 4.81392e-07, global = 6.12211e-08, cumulative = 0.000252967
smoothSolver:  Solving for nuTilda, Initial residual = 0.00162216, Final residual = 0.000159562, No Iterations 2
ExecutionTime = 1.44343 s  ClockTime = 1 s

Time = 130s

smoothSolver:  Solving for Ux, Initial residual = 0.000783073, Final residual = 7.05001e-05, No Iterations 2
smoothSolver:  Solving for Uy, Initial residual = 0.000420659, Final residual = 1.72427e-05, No Iterations 4
GAMG:  Solving for p, Initial residual = 0.000950581, Final residual = 7.6834e-05, No Iterations 5
time step continuity errors : sum local = 4.65044e-07, global = 5.82149e-08, cumulative = 0.000253025
smoothSolver:  Solving for nuTilda, Initial residual = 0.00157385, Final residual = 0.000153891, No Iterations 2
ExecutionTime = 1.45195 s  ClockTime = 1 s

Time = 131s

smoothSolver:  Solving for Ux, Initial residual = 0.000765929, Final residual = 6.88056e-05, No Iterations 2
smoothSolver:  Solving for Uy, Initial residual = 0.000412232, Final residual = 1.69048e-05, No Iterations 4
GAMG:  Solving for p, Initial residual = 0.000928358, Final residual = 7.3949e-05, No Iterations 5
time step continuity errors : sum local = 4.47913e-07, global = 5.62469e-08, cumulative = 0.000253081
smoothSolver:  Solving for nuTilda, Initial residual = 0.00152509, Final residual = 0.000148185, No Iterations 2
ExecutionTime = 1.46059 s  ClockTime = 1 s

Time = 132s

smoothSolver:  Solving for Ux, Initial residual = 0.000749272, Final residual = 6.71577e-05, No Iterations 2
smoothSolver:  Solving for Uy, Initial residual = 0.000403651, Final residual = 1.65649e-05, No Iterations 4
GAMG:  Solving for p, Initial residual = 0.000908579, Final residual = 8.96367e-05, No Iterations 4
time step continuity errors : sum local = 5.43327e-07, global = -7.94615e-08, cumulative = 0.000253002
smoothSolver:  Solving for nuTilda, Initial residual = 0.00147738, Final residual = 0.000142499, No Iterations 2
ExecutionTime = 1.46889 s  ClockTime = 1 s

Time = 133s

smoothSolver:  Solving for Ux, Initial residual = 0.000733077, Final residual = 6.54069e-05, No Iterations 2
smoothSolver:  Solving for Uy, Initial residual = 0.00039364, Final residual = 1.60979e-05, No Iterations 4
GAMG:  Solving for p, Initial residual = 0.00088532, Final residual = 7.49603e-05, No Iterations 5
time step continuity errors : sum local = 4.54699e-07, global = 7.22039e-08, cumulative = 0.000253074
smoothSolver:  Solving for nuTilda, Initial residual = 0.00143102, Final residual = 0.000136868, No Iterations 2
ExecutionTime = 1.47785 s  ClockTime = 1 s

Time = 134s

smoothSolver:  Solving for Ux, Initial residual = 0.000717286, Final residual = 6.40039e-05, No Iterations 2
smoothSolver:  Solving for Uy, Initial residual = 0.000385518, Final residual = 1.58489e-05, No Iterations 4
GAMG:  Solving for p, Initial residual = 0.000865628, Final residual = 7.03078e-05, No Iterations 5
time step continuity errors : sum local = 4.26764e-07, global = 5.82587e-08, cumulative = 0.000253132
smoothSolver:  Solving for nuTilda, Initial residual = 0.00138623, Final residual = 0.000131266, No Iterations 2
ExecutionTime = 1.48643 s  ClockTime = 1 s

Time = 135s

smoothSolver:  Solving for Ux, Initial residual = 0.000701841, Final residual = 6.25775e-05, No Iterations 2
smoothSolver:  Solving for Uy, Initial residual = 0.000376964, Final residual = 1.55504e-05, No Iterations 4
GAMG:  Solving for p, Initial residual = 0.000848794, Final residual = 8.15559e-05, No Iterations 4
time step continuity errors : sum local = 4.95373e-07, global = -7.703e-08, cumulative = 0.000253055
[...]
smoothSolver:  Solving for Uy, Initial residual = 7.28384e-06, Final residual = 3.15329e-07, No Iterations 4
GAMG:  Solving for p, Initial residual = 1.7115e-05, Final residual = 1.67119e-06, No Iterations 4
time step continuity errors : sum local = 1.04179e-08, global = -1.7451e-09, cumulative = 0.000251855
smoothSolver:  Solving for nuTilda, Initial residual = 2.34853e-05, Final residual = 6.51751e-07, No Iterations 4
ExecutionTime = 2.86815 s  ClockTime = 2 s

Time = 281s

smoothSolver:  Solving for Ux, Initial residual = 1.5621e-05, Final residual = 1.48361e-06, No Iterations 2
smoothSolver:  Solving for Uy, Initial residual = 7.07493e-06, Final residual = 3.04811e-07, No Iterations 4
GAMG:  Solving for p, Initial residual = 1.66069e-05, Final residual = 1.35457e-06, No Iterations 5
time step continuity errors : sum local = 8.44427e-09, global = 1.64463e-09, cumulative = 0.000251856
smoothSolver:  Solving for nuTilda, Initial residual = 2.28357e-05, Final residual = 2.27405e-06, No Iterations 2
ExecutionTime = 2.87758 s  ClockTime = 3 s

Time = 282s

smoothSolver:  Solving for Ux, Initial residual = 1.52097e-05, Final residual = 1.44681e-06, No Iterations 2
smoothSolver:  Solving for Uy, Initial residual = 6.90514e-06, Final residual = 2.98378e-07, No Iterations 4
GAMG:  Solving for p, Initial residual = 1.61678e-05, Final residual = 1.26833e-06, No Iterations 5
time step continuity errors : sum local = 7.9068e-09, global = 1.26906e-09, cumulative = 0.000251858
smoothSolver:  Solving for nuTilda, Initial residual = 2.22601e-05, Final residual = 2.22278e-06, No Iterations 2
ExecutionTime = 2.88662 s  ClockTime = 3 s

Time = 283s

smoothSolver:  Solving for Ux, Initial residual = 1.48146e-05, Final residual = 1.41054e-06, No Iterations 2
smoothSolver:  Solving for Uy, Initial residual = 6.73788e-06, Final residual = 2.91597e-07, No Iterations 4
GAMG:  Solving for p, Initial residual = 1.58275e-05, Final residual = 1.54114e-06, No Iterations 4
time step continuity errors : sum local = 9.60759e-09, global = -1.61409e-09, cumulative = 0.000251856
smoothSolver:  Solving for nuTilda, Initial residual = 2.16955e-05, Final residual = 6.01027e-07, No Iterations 4
ExecutionTime = 2.89745 s  ClockTime = 3 s

Time = 284s

smoothSolver:  Solving for Ux, Initial residual = 1.44392e-05, Final residual = 1.37111e-06, No Iterations 2
smoothSolver:  Solving for Uy, Initial residual = 6.54463e-06, Final residual = 2.81907e-07, No Iterations 4
GAMG:  Solving for p, Initial residual = 1.5357e-05, Final residual = 1.2506e-06, No Iterations 5
time step continuity errors : sum local = 7.79647e-09, global = 1.5191e-09, cumulative = 0.000251858
smoothSolver:  Solving for nuTilda, Initial residual = 2.10964e-05, Final residual = 2.0983e-06, No Iterations 2
ExecutionTime = 2.90693 s  ClockTime = 3 s

Time = 285s

smoothSolver:  Solving for Ux, Initial residual = 1.40593e-05, Final residual = 1.33711e-06, No Iterations 2
smoothSolver:  Solving for Uy, Initial residual = 6.38726e-06, Final residual = 2.75976e-07, No Iterations 4
GAMG:  Solving for p, Initial residual = 1.49525e-05, Final residual = 1.17301e-06, No Iterations 5
time step continuity errors : sum local = 7.31284e-09, global = 1.17143e-09, cumulative = 0.000251859
smoothSolver:  Solving for nuTilda, Initial residual = 2.05668e-05, Final residual = 2.05084e-06, No Iterations 2
ExecutionTime = 2.91572 s  ClockTime = 3 s

Time = 286s

smoothSolver:  Solving for Ux, Initial residual = 1.36943e-05, Final residual = 1.30356e-06, No Iterations 2
smoothSolver:  Solving for Uy, Initial residual = 6.23226e-06, Final residual = 2.69702e-07, No Iterations 4
GAMG:  Solving for p, Initial residual = 1.46352e-05, Final residual = 1.42723e-06, No Iterations 4
time step continuity errors : sum local = 8.89783e-09, global = -1.49735e-09, cumulative = 0.000251857
smoothSolver:  Solving for nuTilda, Initial residual = 2.00474e-05, Final residual = 2.00458e-06, No Iterations 2
ExecutionTime = 2.92414 s  ClockTime = 3 s

Time = 287s

smoothSolver:  Solving for Ux, Initial residual = 1.33476e-05, Final residual = 1.2671e-06, No Iterations 2
smoothSolver:  Solving for Uy, Initial residual = 6.05334e-06, Final residual = 2.6072e-07, No Iterations 4
GAMG:  Solving for p, Initial residual = 1.41987e-05, Final residual = 1.15836e-06, No Iterations 5
time step continuity errors : sum local = 7.22174e-09, global = 1.40682e-09, cumulative = 0.000251859
smoothSolver:  Solving for nuTilda, Initial residual = 1.95399e-05, Final residual = 5.4229e-07, No Iterations 4
ExecutionTime = 2.93327 s  ClockTime = 3 s

Time = 288s

smoothSolver:  Solving for Ux, Initial residual = 1.29966e-05, Final residual = 1.2357e-06, No Iterations 2
smoothSolver:  Solving for Uy, Initial residual = 5.90771e-06, Final residual = 2.55219e-07, No Iterations 4
GAMG:  Solving for p, Initial residual = 1.38263e-05, Final residual = 1.08722e-06, No Iterations 5
time step continuity errors : sum local = 6.77826e-09, global = 1.08735e-09, cumulative = 0.00025186
smoothSolver:  Solving for nuTilda, Initial residual = 1.89952e-05, Final residual = 1.8922e-06, No Iterations 2
ExecutionTime = 2.94276 s  ClockTime = 3 s

Time = 289s

smoothSolver:  Solving for Ux, Initial residual = 1.26593e-05, Final residual = 1.20474e-06, No Iterations 2
smoothSolver:  Solving for Uy, Initial residual = 5.76437e-06, Final residual = 2.49412e-07, No Iterations 4
GAMG:  Solving for p, Initial residual = 1.35347e-05, Final residual = 1.32023e-06, No Iterations 4
time step continuity errors : sum local = 8.23107e-09, global = -1.38486e-09, cumulative = 0.000251858
smoothSolver:  Solving for nuTilda, Initial residual = 1.8516e-05, Final residual = 1.8494e-06, No Iterations 2
ExecutionTime = 2.95304 s  ClockTime = 3 s

Time = 290s

smoothSolver:  Solving for Ux, Initial residual = 1.23388e-05, Final residual = 1.17109e-06, No Iterations 2
smoothSolver:  Solving for Uy, Initial residual = 5.59885e-06, Final residual = 2.41106e-07, No Iterations 4
GAMG:  Solving for p, Initial residual = 1.3129e-05, Final residual = 1.07007e-06, No Iterations 5
time step continuity errors : sum local = 6.67152e-09, global = 1.30136e-09, cumulative = 0.00025186
smoothSolver:  Solving for nuTilda, Initial residual = 1.80465e-05, Final residual = 4.99967e-07, No Iterations 4
ExecutionTime = 2.96239 s  ClockTime = 3 s

Time = 291s

smoothSolver:  Solving for Ux, Initial residual = 1.20146e-05, Final residual = 1.1421e-06, No Iterations 2
smoothSolver:  Solving for Uy, Initial residual = 5.46394e-06, Final residual = 2.36017e-07, No Iterations 4
GAMG:  Solving for p, Initial residual = 1.27856e-05, Final residual = 1.00339e-06, No Iterations 5
time step continuity errors : sum local = 6.25585e-09, global = 1.00519e-09, cumulative = 0.000251861
smoothSolver:  Solving for nuTilda, Initial residual = 1.75455e-05, Final residual = 1.74545e-06, No Iterations 2
ExecutionTime = 2.97315 s  ClockTime = 3 s

Time = 292s

smoothSolver:  Solving for Ux, Initial residual = 1.17029e-05, Final residual = 1.11351e-06, No Iterations 2
smoothSolver:  Solving for Uy, Initial residual = 5.33103e-06, Final residual = 2.30637e-07, No Iterations 4
GAMG:  Solving for p, Initial residual = 1.25123e-05, Final residual = 1.21873e-06, No Iterations 4
time step continuity errors : sum local = 7.59853e-09, global = -1.27891e-09, cumulative = 0.000251859
smoothSolver:  Solving for nuTilda, Initial residual = 1.71046e-05, Final residual = 1.70588e-06, No Iterations 2
ExecutionTime = 2.98247 s  ClockTime = 3 s

Time = 293s

smoothSolver:  Solving for Ux, Initial residual = 1.14068e-05, Final residual = 1.08243e-06, No Iterations 2
smoothSolver:  Solving for Uy, Initial residual = 5.17767e-06, Final residual = 2.22947e-07, No Iterations 4
GAMG:  Solving for p, Initial residual = 1.21418e-05, Final residual = 9.88367e-07, No Iterations 5
time step continuity errors : sum local = 6.16233e-09, global = 1.2038e-09, cumulative = 0.000251861
smoothSolver:  Solving for nuTilda, Initial residual = 1.66725e-05, Final residual = 1.6672e-06, No Iterations 2
ExecutionTime = 2.99087 s  ClockTime = 3 s

Time = 294s

smoothSolver:  Solving for Ux, Initial residual = 1.11071e-05, Final residual = 1.05567e-06, No Iterations 2
smoothSolver:  Solving for Uy, Initial residual = 5.0527e-06, Final residual = 2.18232e-07, No Iterations 4
GAMG:  Solving for p, Initial residual = 1.18217e-05, Final residual = 9.27021e-07, No Iterations 5
time step continuity errors : sum local = 5.77991e-09, global = 9.30439e-10, cumulative = 0.000251862
smoothSolver:  Solving for nuTilda, Initial residual = 1.62528e-05, Final residual = 4.50833e-07, No Iterations 4
ExecutionTime = 2.99938 s  ClockTime = 3 s

Time = 295s

smoothSolver:  Solving for Ux, Initial residual = 1.08191e-05, Final residual = 1.02929e-06, No Iterations 2
smoothSolver:  Solving for Uy, Initial residual = 4.92968e-06, Final residual = 2.13256e-07, No Iterations 4
GAMG:  Solving for p, Initial residual = 1.15745e-05, Final residual = 1.12841e-06, No Iterations 4
time step continuity errors : sum local = 7.03562e-09, global = -1.18555e-09, cumulative = 0.00025186
smoothSolver:  Solving for nuTilda, Initial residual = 1.58035e-05, Final residual = 1.5735e-06, No Iterations 2
ExecutionTime = 3.00784 s  ClockTime = 3 s

Time = 296s

smoothSolver:  Solving for Ux, Initial residual = 1.05454e-05, Final residual = 1.0006e-06, No Iterations 2
smoothSolver:  Solving for Uy, Initial residual = 4.78786e-06, Final residual = 2.06148e-07, No Iterations 4
GAMG:  Solving for p, Initial residual = 1.12277e-05, Final residual = 9.15349e-07, No Iterations 5
time step continuity errors : sum local = 5.70725e-09, global = 1.11435e-09, cumulative = 0.000251861
smoothSolver:  Solving for nuTilda, Initial residual = 1.54064e-05, Final residual = 1.53773e-06, No Iterations 2
ExecutionTime = 3.01682 s  ClockTime = 3 s

Time = 297s

smoothSolver:  Solving for Ux, Initial residual = 1.02683e-05, Final residual = 9.75869e-07, No Iterations 2
smoothSolver:  Solving for Uy, Initial residual = 4.67222e-06, Final residual = 2.01788e-07, No Iterations 4
GAMG:  Solving for p, Initial residual = 1.09315e-05, Final residual = 8.58003e-07, No Iterations 5
time step continuity errors : sum local = 5.34974e-09, global = 8.59853e-10, cumulative = 0.000251862
smoothSolver:  Solving for nuTilda, Initial residual = 1.50176e-05, Final residual = 4.15386e-07, No Iterations 4
ExecutionTime = 3.02686 s  ClockTime = 3 s

Time = 298s

smoothSolver:  Solving for Ux, Initial residual = 1.0002e-05, Final residual = 9.5148e-07, No Iterations 2
smoothSolver:  Solving for Uy, Initial residual = 4.55826e-06, Final residual = 1.97182e-07, No Iterations 4
GAMG:  Solving for p, Initial residual = 1.07008e-05, Final residual = 1.04317e-06, No Iterations 4
time step continuity errors : sum local = 6.50436e-09, global = -1.09543e-09, cumulative = 0.000251861
smoothSolver:  Solving for nuTilda, Initial residual = 1.4602e-05, Final residual = 1.45107e-06, No Iterations 2
ExecutionTime = 3.03511 s  ClockTime = 3 s

Time = 299s

smoothSolver:  Solving for Ux, Initial residual = 9.74903e-06, Final residual = 9.24946e-07, No Iterations 2
smoothSolver:  Solving for Uy, Initial residual = 4.42683e-06, Final residual = 1.90597e-07, No Iterations 4
GAMG:  Solving for p, Initial residual = 1.03808e-05, Final residual = 8.45364e-07, No Iterations 5
time step continuity errors : sum local = 5.27104e-09, global = 1.02902e-09, cumulative = 0.000251862
smoothSolver:  Solving for nuTilda, Initial residual = 1.42342e-05, Final residual = 1.41801e-06, No Iterations 2
ExecutionTime = 3.04392 s  ClockTime = 3 s

Time = 300s

smoothSolver:  Solving for Ux, Initial residual = 9.49288e-06, Final residual = 9.02093e-07, No Iterations 2
smoothSolver:  Solving for Uy, Initial residual = 4.31964e-06, Final residual = 1.86553e-07, No Iterations 4
GAMG:  Solving for p, Initial residual = 1.0106e-05, Final residual = 7.91977e-07, No Iterations 5
time step continuity errors : sum local = 4.9382e-09, global = 7.94755e-10, cumulative = 0.000251863
smoothSolver:  Solving for nuTilda, Initial residual = 1.38741e-05, Final residual = 1.38577e-06, No Iterations 2
ExecutionTime = 3.06939 s  ClockTime = 3 s

Time = 301s

smoothSolver:  Solving for Ux, Initial residual = 9.2467e-06, Final residual = 8.79559e-07, No Iterations 2
smoothSolver:  Solving for Uy, Initial residual = 4.21409e-06, Final residual = 1.82285e-07, No Iterations 4
GAMG:  Solving for p, Initial residual = 9.89135e-06, Final residual = 9.62106e-07, No Iterations 4
time step continuity errors : sum local = 5.99906e-09, global = -1.01043e-09, cumulative = 0.000251862
smoothSolver:  Solving for nuTilda, Initial residual = 1.35244e-05, Final residual = 3.74324e-07, No Iterations 4
ExecutionTime = 3.07877 s  ClockTime = 3 s

Time = 302s

smoothSolver:  Solving for Ux, Initial residual = 9.01281e-06, Final residual = 8.55065e-07, No Iterations 2
smoothSolver:  Solving for Uy, Initial residual = 4.09247e-06, Final residual = 1.76196e-07, No Iterations 4
GAMG:  Solving for p, Initial residual = 9.59858e-06, Final residual = 9.8061e-07, No Iterations 4
time step continuity errors : sum local = 6.11449e-09, global = -1.23251e-09, cumulative = 0.000251861
smoothSolver:  Solving for nuTilda, Initial residual = 1.31498e-05, Final residual = 1.30779e-06, No Iterations 2
ExecutionTime = 3.08672 s  ClockTime = 3 s

Time = 303s

smoothSolver:  Solving for Ux, Initial residual = 8.78013e-06, Final residual = 8.3251e-07, No Iterations 2
smoothSolver:  Solving for Uy, Initial residual = 3.98163e-06, Final residual = 1.71227e-07, No Iterations 4
GAMG:  Solving for p, Initial residual = 9.38525e-06, Final residual = 8.14832e-07, No Iterations 5
time step continuity errors : sum local = 5.08085e-09, global = 1.06309e-09, cumulative = 0.000251862
smoothSolver:  Solving for nuTilda, Initial residual = 1.28188e-05, Final residual = 1.27799e-06, No Iterations 2
ExecutionTime = 3.09535 s  ClockTime = 3 s

Time = 304s

smoothSolver:  Solving for Ux, Initial residual = 8.5477e-06, Final residual = 8.13364e-07, No Iterations 2
smoothSolver:  Solving for Uy, Initial residual = 3.89412e-06, Final residual = 1.68409e-07, No Iterations 4
GAMG:  Solving for p, Initial residual = 9.10741e-06, Final residual = 9.40255e-07, No Iterations 4
time step continuity errors : sum local = 5.86295e-09, global = -1.03571e-09, cumulative = 0.000251861
smoothSolver:  Solving for nuTilda, Initial residual = 1.24953e-05, Final residual = 1.24894e-06, No Iterations 2
ExecutionTime = 3.10326 s  ClockTime = 3 s

Time = 305s

smoothSolver:  Solving for Ux, Initial residual = 8.32988e-06, Final residual = 7.91748e-07, No Iterations 2
smoothSolver:  Solving for Uy, Initial residual = 3.78929e-06, Final residual = 1.63451e-07, No Iterations 4
GAMG:  Solving for p, Initial residual = 8.91226e-06, Final residual = 9.25865e-07, No Iterations 4
time step continuity errors : sum local = 5.77328e-09, global = -1.18875e-09, cumulative = 0.00025186
smoothSolver:  Solving for nuTilda, Initial residual = 1.21806e-05, Final residual = 3.37316e-07, No Iterations 4
ExecutionTime = 3.11162 s  ClockTime = 3 s

Time = 306s

smoothSolver:  Solving for Ux, Initial residual = 8.11523e-06, Final residual = 7.70519e-07, No Iterations 2
smoothSolver:  Solving for Uy, Initial residual = 3.6866e-06, Final residual = 1.58825e-07, No Iterations 4
GAMG:  Solving for p, Initial residual = 8.7225e-06, Final residual = 9.24525e-07, No Iterations 4
time step continuity errors : sum local = 5.76497e-09, global = -1.26778e-09, cumulative = 0.000251858
smoothSolver:  Solving for nuTilda, Initial residual = 1.18437e-05, Final residual = 1.17862e-06, No Iterations 2
ExecutionTime = 3.11957 s  ClockTime = 3 s

Time = 307s

smoothSolver:  Solving for Ux, Initial residual = 7.90489e-06, Final residual = 7.50448e-07, No Iterations 2
smoothSolver:  Solving for Uy, Initial residual = 3.58984e-06, Final residual = 1.54708e-07, No Iterations 4
GAMG:  Solving for p, Initial residual = 8.53368e-06, Final residual = 9.20712e-07, No Iterations 4
time step continuity errors : sum local = 5.74123e-09, global = -1.30399e-09, cumulative = 0.000251857
smoothSolver:  Solving for nuTilda, Initial residual = 1.1547e-05, Final residual = 1.15181e-06, No Iterations 2
ExecutionTime = 3.12862 s  ClockTime = 3 s

Time = 308s

smoothSolver:  Solving for Ux, Initial residual = 7.69978e-06, Final residual = 7.31338e-07, No Iterations 2
smoothSolver:  Solving for Uy, Initial residual = 3.49815e-06, Final residual = 1.50885e-07, No Iterations 4
GAMG:  Solving for p, Initial residual = 8.34242e-06, Final residual = 9.02981e-07, No Iterations 4
time step continuity errors : sum local = 5.63071e-09, global = -1.32603e-09, cumulative = 0.000251856
smoothSolver:  Solving for nuTilda, Initial residual = 1.12567e-05, Final residual = 1.12564e-06, No Iterations 2
ExecutionTime = 3.13716 s  ClockTime = 3 s

Time = 309s

smoothSolver:  Solving for Ux, Initial residual = 7.50026e-06, Final residual = 7.12717e-07, No Iterations 2
smoothSolver:  Solving for Uy, Initial residual = 3.4092e-06, Final residual = 1.47117e-07, No Iterations 4
GAMG:  Solving for p, Initial residual = 8.15057e-06, Final residual = 8.79437e-07, No Iterations 4
time step continuity errors : sum local = 5.48393e-09, global = -1.30471e-09, cumulative = 0.000251854
smoothSolver:  Solving for nuTilda, Initial residual = 1.09744e-05, Final residual = 3.04043e-07, No Iterations 4
ExecutionTime = 3.14572 s  ClockTime = 3 s

Time = 310s

smoothSolver:  Solving for Ux, Initial residual = 7.30624e-06, Final residual = 6.94332e-07, No Iterations 2
smoothSolver:  Solving for Uy, Initial residual = 3.32124e-06, Final residual = 1.43339e-07, No Iterations 4
GAMG:  Solving for p, Initial residual = 7.95918e-06, Final residual = 8.52711e-07, No Iterations 4
time step continuity errors : sum local = 5.31732e-09, global = -1.27129e-09, cumulative = 0.000251853
smoothSolver:  Solving for nuTilda, Initial residual = 1.06718e-05, Final residual = 1.06231e-06, No Iterations 2
ExecutionTime = 3.1535 s  ClockTime = 3 s

Time = 311s

smoothSolver:  Solving for Ux, Initial residual = 7.11738e-06, Final residual = 6.76258e-07, No Iterations 2
smoothSolver:  Solving for Uy, Initial residual = 3.23429e-06, Final residual = 1.39593e-07, No Iterations 4
GAMG:  Solving for p, Initial residual = 7.7649e-06, Final residual = 8.26578e-07, No Iterations 4
time step continuity errors : sum local = 5.15439e-09, global = -1.23347e-09, cumulative = 0.000251852
smoothSolver:  Solving for nuTilda, Initial residual = 1.04055e-05, Final residual = 1.03817e-06, No Iterations 2
ExecutionTime = 3.16152 s  ClockTime = 3 s

Time = 312s

smoothSolver:  Solving for Ux, Initial residual = 6.93342e-06, Final residual = 6.58665e-07, No Iterations 2
smoothSolver:  Solving for Uy, Initial residual = 3.14921e-06, Final residual = 1.35937e-07, No Iterations 4
GAMG:  Solving for p, Initial residual = 7.57105e-06, Final residual = 8.04036e-07, No Iterations 4
time step continuity errors : sum local = 5.01385e-09, global = -1.19834e-09, cumulative = 0.000251851
smoothSolver:  Solving for nuTilda, Initial residual = 1.01449e-05, Final residual = 2.80204e-07, No Iterations 4
ExecutionTime = 3.16945 s  ClockTime = 3 s

Time = 313s

smoothSolver:  Solving for Ux, Initial residual = 6.75419e-06, Final residual = 6.41637e-07, No Iterations 2
smoothSolver:  Solving for Uy, Initial residual = 3.0668e-06, Final residual = 1.32396e-07, No Iterations 4
GAMG:  Solving for p, Initial residual = 7.38e-06, Final residual = 7.84296e-07, No Iterations 4
time step continuity errors : sum local = 4.89079e-09, global = -1.1675e-09, cumulative = 0.00025185
smoothSolver:  Solving for nuTilda, Initial residual = 9.86613e-06, Final residual = 9.79795e-07, No Iterations 2
ExecutionTime = 3.17922 s  ClockTime = 3 s


SIMPLE solution converged in 313 iterations

End

